4-4
                    3D
 Schrodinger Suite 2022-2.
 46 49  0  0  1  0            999 V2000
   -0.4414    4.7454    1.4921 O   0  0  0  0  0  0
   -0.8235    3.6185    0.7240 C   0  0  1  0  0  0
   -2.0879    2.8684    1.2180 C   0  0  2  0  0  0
   -2.3548    2.9576    2.7375 C   0  0  0  0  0  0
   -1.8522    1.4120    0.7444 C   0  0  0  0  0  0
   -0.4796    1.3715   -0.0010 C   0  0  1  0  0  0
    0.1029   -0.0704   -0.0814 C   0  0  2  0  0  0
    1.6511   -0.1774   -0.1428 C   0  0  0  0  0  0
    2.2907    0.0112    1.2394 N   0  3  0  0  0  0
   -0.5536   -0.6012   -1.3558 C   0  0  0  0  0  0
   -0.7458   -1.9212   -1.7879 C   0  0  0  0  0  0
   -0.3459   -3.1087   -0.9280 C   0  0  0  0  0  0
   -1.3387   -2.1508   -3.0350 C   0  0  0  0  0  0
   -1.7161   -1.0827   -3.8501 C   0  0  0  0  0  0
   -1.5098    0.2293   -3.4262 C   0  0  0  0  0  0
   -0.9433    0.4654   -2.1739 C   0  0  0  0  0  0
   -0.5626    1.7596   -1.4970 C   0  0  1  0  0  0
   -1.4154    3.0257   -1.7411 C   0  0  0  0  0  0
   -1.0065    4.1428   -0.7398 C   0  0  0  0  0  0
    0.2387    2.5000    0.7618 C   0  0  0  0  0  0
   -1.1151    5.4224    1.3947 H   0  0  0  0  0  0
   -2.9746    3.2746    0.7277 H   0  0  0  0  0  0
   -1.5066    2.5930    3.3179 H   0  0  0  0  0  0
   -3.2264    2.3652    3.0172 H   0  0  0  0  0  0
   -2.5513    3.9847    3.0464 H   0  0  0  0  0  0
   -1.8366    0.7375    1.6025 H   0  0  0  0  0  0
   -2.6663    1.0620    0.1077 H   0  0  0  0  0  0
   -0.2510   -0.6573    0.7687 H   0  0  0  0  0  0
    1.9917   -1.1697   -0.4395 H   0  0  0  0  0  0
    2.1179    0.5707   -0.7845 H   0  0  0  0  0  0
    3.2946   -0.0800    1.1742 H   0  0  0  0  0  0
    1.9412   -0.6858    1.8817 H   0  0  0  0  0  0
   -0.7717   -4.0435   -1.2949 H   0  0  0  0  0  0
   -0.7045   -2.9720    0.0926 H   0  0  0  0  0  0
    0.7389   -3.2063   -0.8887 H   0  0  0  0  0  0
   -1.5030   -3.1609   -3.3826 H   0  0  0  0  0  0
   -2.1635   -1.2732   -4.8146 H   0  0  0  0  0  0
   -1.7919    1.0481   -4.0717 H   0  0  0  0  0  0
    0.4365    2.0061   -1.8649 H   0  0  0  0  0  0
   -1.2595    3.3971   -2.7550 H   0  0  0  0  0  0
   -2.4777    2.8017   -1.6342 H   0  0  0  0  0  0
   -1.7523    4.9390   -0.7706 H   0  0  0  0  0  0
   -0.0738    4.5958   -1.0823 H   0  0  0  0  0  0
    1.1749    2.8043    0.2904 H   0  0  0  0  0  0
    0.4699    2.2100    1.7889 H   0  0  0  0  0  0
    2.0700    0.9279    1.6020 H   0  0  0  0  0  0
  1  2  1  0  0  0
  1 21  1  0  0  0
  2 20  1  0  0  0
  2 19  1  0  0  0
  2  3  1  0  0  0
  3  4  1  0  0  0
  3  5  1  0  0  0
  3 22  1  0  0  0
  4 23  1  0  0  0
  4 24  1  0  0  0
  4 25  1  0  0  0
  5  6  1  0  0  0
  5 26  1  0  0  0
  5 27  1  0  0  0
  6 17  1  0  0  0
  6  7  1  0  0  0
  6 20  1  0  0  0
  7  8  1  0  0  0
  7 10  1  0  0  0
  7 28  1  0  0  0
  8  9  1  0  0  0
  8 29  1  0  0  0
  8 30  1  0  0  0
  9 31  1  0  0  0
  9 32  1  0  0  0
  9 46  1  0  0  0
 10 16  2  0  0  0
 10 11  1  0  0  0
 11 12  1  0  0  0
 11 13  2  0  0  0
 12 33  1  0  0  0
 12 34  1  0  0  0
 12 35  1  0  0  0
 13 14  1  0  0  0
 13 36  1  0  0  0
 14 15  2  0  0  0
 14 37  1  0  0  0
 15 16  1  0  0  0
 15 38  1  0  0  0
 16 17  1  0  0  0
 17 18  1  0  0  0
 17 39  1  0  0  0
 18 19  1  0  0  0
 18 40  1  0  0  0
 18 41  1  0  0  0
 19 42  1  0  0  0
 19 43  1  0  0  0
 20 44  1  0  0  0
 20 45  1  0  0  0
M  CHG  1   9   1
M  END
> <s_m_entry_id>
21672

> <s_m_entry_name>
data_maestro.4

> <s_m_Source_Path>
C:\Users\olshana1\Documents\new-progect-about-gram-negative-bacteria-main\work with NATURE dataset - neutral molecules\Gram Negative Permeation - OmpF- applying for Nature_data_neutral_charge

> <s_m_Source_File>
data_maestro.csv

> <i_m_Source_File_Index>
4

> <s_m_job_name>
ligprep_data_Nature_from3Dstructure_NEUTRAL-out1_without_tautomers-out1_5

> <s_m_source_file>
ligprep_data_Nature_from3Dstructure_NEUTRAL-out1_without_tautomers-out1_5.maegz

> <i_m_source_file_index>
4

> <i_lp_mmshare_version>
58128

> <i_f3d_flags>
0

> <s_lp_Force_Field>
S-OPLS

> <r_lp_Energy>
38.966646

> <b_lp_Chiralities_Consistent>
1

> <s_lp_Variant>
4-4-1

> <s_epik_input>
W0NIM11bQ0BIXShbQ0gyXTEpW0NAQF0oW09IXSkoW0NIMl0yKVtDSDJdW0NIMl1bQ0BASF0oW0NAXTEyMyljNGMoW0NASF0zW0NIMl1bTkgyXSljKFtDSDNdKVtjSF1bY0hdW2NIXTQ=

> <s_epik_cmdline>
J2VwaWtfcHl0aG9uJywgJy1waHQnLCAnMC4wJywgJy1waCcsICc3LjQnLCAnLW50JywgJy1tYScsICc1MDAnLCAnLWltYWUnLCAnPGluZmlsZS5tYWU+JywgJy1vbWFlJywgJzxvdXRmaWxlLm1hZT4n

> <r_lp_tautomer_probability>
1

> <r_epik_Ionization_Penalty>
  0.0019

> <r_epik_Ionization_Penalty_Charging>
  0.0019

> <r_epik_Ionization_Penalty_Neutral>
  0.0000

> <r_epik_State_Penalty>
  0.0000

> <r_epik_Charging_Adjusted_Penalty>
0.00192239349338452

> <i_epik_Tot_Q>
1

> <i_epik_Tot_abs_Q>
1

> <s_m_subgroup_title>
ligprep_data_Nature_from3Dstructure_NEUTRAL-out1_without_tautomers-out1_5-out1

> <s_m_subgroupid>
ligprep_data_Nature_from3Dstructure_NEUTRAL-out1_without_tautomers-out1_5-out1

> <b_m_subgroup_collapsed>
0

$$$$
