Ceftriaxone
                    3D
 Schrodinger Suite 2022-2.
 52 55  0  0  1  0            999 V2000
  -33.7573  -15.3716  -26.3687 C   0  0  0  0  0  0
  -34.0080  -16.6365  -27.0435 N   0  0  0  0  0  0
  -33.1281  -17.7450  -26.8920 C   0  0  0  0  0  0
  -31.9885  -17.5877  -25.4643 S   0  0  0  0  0  0
  -31.6219  -19.3276  -25.0450 C   0  0  0  0  0  0
  -30.3340  -19.5229  -24.2413 C   0  0  0  0  0  0
  -29.3997  -20.4777  -24.5173 C   0  0  0  0  0  0
  -28.2430  -20.6605  -23.7404 N   0  0  0  0  0  0
  -27.7656  -19.6989  -22.7676 C   0  0  2  0  0  0
  -26.7345  -20.7696  -22.3453 C   0  0  2  0  0  0
  -27.1286  -21.4764  -23.6667 C   0  0  0  0  0  0
  -26.6888  -22.3371  -24.4032 O   0  0  0  0  0  0
  -27.1500  -21.4323  -21.1080 N   0  0  0  0  0  0
  -26.8065  -22.6536  -20.6704 C   0  0  0  0  0  0
  -27.1426  -22.8432  -19.2078 C   0  0  0  0  0  0
  -26.2044  -22.1367  -18.2983 C   0  0  0  0  0  0
  -25.9689  -20.7784  -18.3379 C   0  0  0  0  0  0
  -24.7281  -20.2962  -17.2143 S   0  0  0  0  0  0
  -24.6420  -21.9557  -16.6578 C   0  0  0  0  0  0
  -23.8262  -22.3468  -15.6135 N   0  0  0  0  0  0
  -25.4330  -22.7856  -17.3288 N   0  0  0  0  0  0
  -28.0470  -23.6183  -18.7511 N   0  0  0  0  0  0
  -28.7106  -24.3490  -19.7498 O   0  0  0  0  0  0
  -30.0776  -24.4744  -19.3971 C   0  0  0  0  0  0
  -26.2530  -23.5338  -21.3372 O   0  0  0  0  0  0
  -29.1692  -19.1990  -21.7188 S   0  0  0  0  0  0
  -30.2172  -18.5682  -23.0510 C   0  0  0  0  0  0
  -29.5748  -21.5721  -25.6135 C   0  0  0  0  0  0
  -29.5922  -22.7586  -25.2136 O   0  5  0  0  0  0
  -29.5689  -21.2054  -26.8077 O   0  0  0  0  0  0
  -33.1097  -18.7805  -27.6815 N   0  0  0  0  0  0
  -34.0178  -18.8345  -28.7329 C   0  0  0  0  0  0
  -35.1687  -17.7736  -28.7716 C   0  0  0  0  0  0
  -36.0482  -17.9496  -29.6133 O   0  0  0  0  0  0
  -35.1513  -16.7494  -27.8788 N   0  5  0  0  0  0
  -33.9690  -19.6924  -29.6133 O   0  0  0  0  0  0
  -32.7373  -15.0317  -26.5442 H   0  0  0  0  0  0
  -34.4308  -14.5964  -26.7365 H   0  0  0  0  0  0
  -33.9217  -15.4713  -25.2953 H   0  0  0  0  0  0
  -31.5996  -19.9113  -25.9598 H   0  0  0  0  0  0
  -32.4572  -19.7117  -24.4593 H   0  0  0  0  0  0
  -27.3188  -18.8452  -23.2815 H   0  0  0  0  0  0
  -25.7192  -20.3734  -22.3125 H   0  0  0  0  0  0
  -27.7188  -20.8626  -20.4940 H   0  0  0  0  0  0
  -26.4312  -20.0222  -18.9558 H   0  0  0  0  0  0
  -24.1252  -23.1785  -15.1283 H   0  0  0  0  0  0
  -23.5730  -21.6120  -14.9643 H   0  0  0  0  0  0
  -30.5454  -25.2436  -20.0105 H   0  0  0  0  0  0
  -30.2248  -24.7428  -18.3493 H   0  0  0  0  0  0
  -30.6065  -23.5495  -19.6133 H   0  0  0  0  0  0
  -29.8207  -17.6119  -23.3939 H   0  0  0  0  0  0
  -31.2030  -18.3753  -22.6268 H   0  0  0  0  0  0
  1  2  1  0  0  0
  1 37  1  0  0  0
  1 38  1  0  0  0
  1 39  1  0  0  0
  2 35  1  0  0  0
  2  3  1  0  0  0
  3  4  1  0  0  0
  3 31  2  0  0  0
  4  5  1  0  0  0
  5  6  1  0  0  0
  5 40  1  0  0  0
  5 41  1  0  0  0
  6 27  1  0  0  0
  6  7  2  0  0  0
  7  8  1  0  0  0
  7 28  1  0  0  0
  8 11  1  0  0  0
  8  9  1  0  0  0
  9 10  1  0  0  0
  9 26  1  0  0  0
  9 42  1  0  0  0
 10 11  1  0  0  0
 10 13  1  0  0  0
 10 43  1  0  0  0
 11 12  2  0  0  0
 13 14  1  0  0  0
 13 44  1  0  0  0
 14 15  1  0  0  0
 14 25  2  0  0  0
 15 16  1  0  0  0
 15 22  2  3  0  0
 16 21  1  0  0  0
 16 17  2  0  0  0
 17 18  1  0  0  0
 17 45  1  0  0  0
 18 19  1  0  0  0
 19 20  1  0  0  0
 19 21  2  0  0  0
 20 46  1  0  0  0
 20 47  1  0  0  0
 22 23  1  0  0  0
 23 24  1  0  0  0
 24 48  1  0  0  0
 24 49  1  0  0  0
 24 50  1  0  0  0
 26 27  1  0  0  0
 27 51  1  0  0  0
 27 52  1  0  0  0
 28 29  1  0  0  0
 28 30  2  0  0  0
 31 32  1  0  0  0
 32 33  1  0  0  0
 32 36  2  0  0  0
 33 34  2  0  0  0
 33 35  1  0  0  0
M  CHG  2  29  -1  35  -1
M  END
> <s_m_entry_id>
27228

> <s_m_entry_name>
data_maestro.22

> <s_m_Source_Path>
C:\Users\olshana1\Git\GramNeg-Accumulation\Gram Negative Permeation - OmpF

> <s_m_Source_File>
data_maestro.csv

> <i_m_Source_File_Index>
22

> <s_m_job_name>
glide-dock_Nicaido_neutral

> <s_i_glide_gridfile>
3POX-grid

> <i_i_glide_lignum>
29

> <i_i_glide_rotatable_bonds>
9

> <r_i_docking_score>
-6.89609046167224

> <r_i_glide_ligand_efficiency>
-0.191558068379784

> <r_i_glide_ligand_efficiency_sa>
-0.632510804973292

> <r_i_glide_ligand_efficiency_ln>
-1.50454062790348

> <r_i_glide_gscore>
-6.89609046167224

> <r_i_glide_lipo>
-0.161782959486318

> <r_i_glide_hbond>
-1.06634267280268

> <r_i_glide_metal>
0

> <r_i_glide_rewards>
-0.143809477023134

> <r_i_glide_evdw>
-37.5396347045898

> <r_i_glide_ecoul>
-21.7161407470703

> <r_i_glide_erotb>
0.330487490737284

> <r_i_glide_esite>
-0.72023999580735

> <r_i_glide_emodel>
-100.164215892907

> <r_i_glide_energy>
-59.2557754516602

> <r_i_glide_einternal>
14.2505550384521

> <i_i_glide_confnum>
81

> <i_i_glide_posenum>
75

> <r_i_glide_eff_state_penalty>
0

> <r_glide_res:A132_vdw>
1.03740768982094

> <r_glide_res:A132_coul>
-46.7518412550157

> <r_glide_res:A132_hbond>
-0.0998079520591407

> <r_glide_res:A132_dist>
1.61560557005169

> <r_glide_res:A132_Eint>
-45.8142415172539

> <r_glide_res:A117_vdw>
-3.20049427368628

> <r_glide_res:A117_coul>
37.2092534762106

> <r_glide_res:A117_hbond>
0

> <r_glide_res:A117_dist>
2.21604797779197

> <r_glide_res:A117_Eint>
34.0087592025244

> <r_glide_res:A113_vdw>
-2.80538810922028

> <r_glide_res:A113_coul>
33.0195823494291

> <r_glide_res:A113_hbond>
0

> <r_glide_res:A113_dist>
2.22781945250896

> <r_glide_res:A113_Eint>
30.2141942402088

> <r_glide_res:A82_vdw>
-1.82024520705848

> <r_glide_res:A82_coul>
-52.4153908059184

> <r_glide_res:A82_hbond>
0

> <r_glide_res:A82_dist>
3.03198448279504

> <r_glide_res:A82_Eint>
-54.2356360129769

> <r_glide_res:A42_vdw>
0.806878742496332

> <r_glide_res:A42_coul>
-70.3770990714749

> <r_glide_res:A42_hbond>
-0.35167940402871

> <r_glide_res:A42_dist>
1.75376533037221

> <r_glide_res:A42_Eint>
-69.9218997330073

> <r_glide_res:A16_vdw>
4.28950763072667

> <r_glide_res:A16_coul>
-84.2702547606685

> <r_glide_res:A16_hbond>
-0.149467429793923

> <r_glide_res:A16_dist>
1.49893485958785

> <r_glide_res:A16_Eint>
-80.1302145597358

> <s_m_source_file>
ligprep_Nicaido_neutral.maegz

> <i_m_source_file_index>
22

> <i_lp_mmshare_version>
58128

> <i_f3d_flags>
0

> <s_lp_Force_Field>
S-OPLS

> <r_lp_Energy>
111.196812

> <b_lp_Chiralities_Consistent>
1

> <s_lp_Variant>
Ceftriaxone-2

> <s_epik_input>
W09IXWMobjEpYyg9TyluYyhuMVtDSDNdKVNbQ0gyXUMoPUMyQyg9TylbT0hdKVtDSDJdU1tDQEhdKE4yMylbQ0BIXShDMz1PKVtOSF1DKD1PKS9DKD1OL09bQ0gzXSljNFtjSF1zYyhuNClbTkgyXQ==

> <s_epik_cmdline>
J2VwaWtfcHl0aG9uJywgJy1waHQnLCAnMC4wJywgJy1waCcsICc3LjQnLCAnLW50JywgJy1tYScsICc1MDAnLCAnLWltYWUnLCAnPGluZmlsZS5tYWU+JywgJy1vbWFlJywgJzxvdXRmaWxlLm1hZT4n

> <r_lp_tautomer_probability>
1

> <r_epik_Ionization_Penalty>
  0.0014

> <r_epik_Ionization_Penalty_Charging>
  0.0010

> <r_epik_Ionization_Penalty_Neutral>
  0.0004

> <r_epik_State_Penalty>
  0.0000

> <r_epik_Charging_Adjusted_Penalty>
0.000994184415634904

> <i_epik_Tot_Q>
-2

> <i_epik_Tot_abs_Q>
2

> <s_epik_Chemistry_Notes>
This compound has an imine and may undergo hydrolysis. This compound contains an acetal/aminal-like group ( X-CH(R)-Y where X, Y are N, S, or O) that may be acid/base labile, releasing an aldehyde.

> <s_m_subgroup_title>
glide-dock_Nicaido_neutral_pv1

> <s_m_subgroupid>
glide-dock_Nicaido_neutral_pv1

> <b_m_subgroup_collapsed>
0

$$$$
Nocardicin B
                    3D
 Schrodinger Suite 2022-2.
 59 61  0  0  1  0            999 V2000
  -30.3645  -20.8091  -26.4129 O   0  0  0  0  0  0
  -30.3513  -19.9310  -25.5752 C   0  0  0  0  0  0
  -29.6639  -19.7412  -24.2154 C   0  0  2  0  0  0
  -30.2556  -18.3334  -24.2577 C   0  0  0  0  0  0
  -30.9515  -18.6907  -25.5053 N   0  0  0  0  0  0
  -31.7805  -17.8869  -26.4213 C   0  0  2  0  0  0
  -32.9418  -17.2348  -25.7190 C   0  0  0  0  0  0
  -33.5201  -16.0593  -26.2597 C   0  0  0  0  0  0
  -34.5369  -15.3522  -25.5871 C   0  0  0  0  0  0
  -34.9848  -15.7961  -24.3307 C   0  0  0  0  0  0
  -34.4733  -16.9925  -23.7986 C   0  0  0  0  0  0
  -33.4820  -17.7087  -24.4964 C   0  0  0  0  0  0
  -35.8809  -15.0558  -23.6134 O   0  0  0  0  0  0
  -32.3687  -18.6720  -27.6134 C   0  0  0  0  0  0
  -33.1368  -19.6346  -27.3885 O   0  5  0  0  0  0
  -31.9649  -18.3494  -28.7553 O   0  0  0  0  0  0
  -28.2048  -19.7018  -24.2791 N   0  0  0  0  0  0
  -27.4092  -20.6611  -24.7793 C   0  0  0  0  0  0
  -25.9700  -20.2582  -24.7500 C   0  0  0  0  0  0
  -25.4137  -20.2795  -23.3759 C   0  0  0  0  0  0
  -25.0786  -19.0916  -22.6928 C   0  0  0  0  0  0
  -24.6846  -19.1371  -21.3405 C   0  0  0  0  0  0
  -24.6245  -20.3653  -20.6499 C   0  0  0  0  0  0
  -24.8899  -21.5608  -21.3614 C   0  0  0  0  0  0
  -25.2831  -21.5146  -22.7078 C   0  0  0  0  0  0
  -24.3444  -20.3308  -19.2994 O   0  0  0  0  0  0
  -24.7995  -21.4214  -18.5005 C   0  0  0  0  0  0
  -26.3440  -21.4544  -18.4274 C   0  0  0  0  0  0
  -26.9374  -22.7912  -17.9356 C   0  0  2  0  0  0
  -26.7726  -23.9136  -18.9832 C   0  0  0  0  0  0
  -27.5641  -23.9495  -19.9546 O   0  5  0  0  0  0
  -25.8475  -24.7388  -18.8137 O   0  0  0  0  0  0
  -28.3690  -22.6196  -17.6339 N   0  3  0  0  0  0
  -25.3618  -19.9552  -25.8226 N   0  0  0  0  0  0
  -24.0279  -19.5487  -25.5296 O   0  0  0  0  0  0
  -27.7763  -21.7570  -25.2131 O   0  0  0  0  0  0
  -30.0646  -20.3485  -23.4027 H   0  0  0  0  0  0
  -30.9102  -18.1113  -23.4136 H   0  0  0  0  0  0
  -29.5125  -17.5496  -24.3859 H   0  0  0  0  0  0
  -31.1235  -17.1123  -26.8206 H   0  0  0  0  0  0
  -33.1457  -15.6699  -27.1954 H   0  0  0  0  0  0
  -34.9289  -14.4382  -26.0098 H   0  0  0  0  0  0
  -34.8199  -17.3564  -22.8423 H   0  0  0  0  0  0
  -33.1065  -18.6186  -24.0540 H   0  0  0  0  0  0
  -35.7417  -15.1492  -22.6742 H   0  0  0  0  0  0
  -27.7644  -18.8518  -23.9480 H   0  0  0  0  0  0
  -25.1683  -18.1348  -23.1910 H   0  0  0  0  0  0
  -24.4757  -18.2162  -20.8161 H   0  0  0  0  0  0
  -24.8392  -22.5289  -20.8896 H   0  0  0  0  0  0
  -25.5243  -22.4370  -23.2153 H   0  0  0  0  0  0
  -24.4060  -21.2825  -17.4932 H   0  0  0  0  0  0
  -24.3660  -22.3605  -18.8403 H   0  0  0  0  0  0
  -26.7852  -21.2222  -19.3971 H   0  0  0  0  0  0
  -26.6653  -20.6417  -17.7732 H   0  0  0  0  0  0
  -26.4452  -23.0835  -17.0072 H   0  0  0  0  0  0
  -28.7421  -23.4932  -17.2946 H   0  0  0  0  0  0
  -28.4851  -21.9043  -16.9310 H   0  0  0  0  0  0
  -24.1140  -18.5941  -25.5565 H   0  0  0  0  0  0
  -28.8755  -22.3533  -18.4685 H   0  0  0  0  0  0
  1  2  2  0  0  0
  2  5  1  0  0  0
  2  3  1  0  0  0
  3  4  1  0  0  0
  3 17  1  0  0  0
  3 37  1  0  0  0
  4  5  1  0  0  0
  4 38  1  0  0  0
  4 39  1  0  0  0
  5  6  1  0  0  0
  6  7  1  0  0  0
  6 14  1  0  0  0
  6 40  1  0  0  0
  7 12  1  0  0  0
  7  8  2  0  0  0
  8  9  1  0  0  0
  8 41  1  0  0  0
  9 10  2  0  0  0
  9 42  1  0  0  0
 10 11  1  0  0  0
 10 13  1  0  0  0
 11 12  2  0  0  0
 11 43  1  0  0  0
 12 44  1  0  0  0
 13 45  1  0  0  0
 14 15  1  0  0  0
 14 16  2  0  0  0
 17 18  1  0  0  0
 17 46  1  0  0  0
 18 19  1  0  0  0
 18 36  2  0  0  0
 19 20  1  0  0  0
 19 34  2  3  0  0
 20 25  1  0  0  0
 20 21  2  0  0  0
 21 22  1  0  0  0
 21 47  1  0  0  0
 22 23  2  0  0  0
 22 48  1  0  0  0
 23 24  1  0  0  0
 23 26  1  0  0  0
 24 25  2  0  0  0
 24 49  1  0  0  0
 25 50  1  0  0  0
 26 27  1  0  0  0
 27 28  1  0  0  0
 27 51  1  0  0  0
 27 52  1  0  0  0
 28 29  1  0  0  0
 28 53  1  0  0  0
 28 54  1  0  0  0
 29 30  1  0  0  0
 29 33  1  0  0  0
 29 55  1  0  0  0
 30 31  1  0  0  0
 30 32  2  0  0  0
 33 56  1  0  0  0
 33 57  1  0  0  0
 33 59  1  0  0  0
 34 35  1  0  0  0
 35 58  1  0  0  0
M  CHG  3  15  -1  31  -1  33   1
M  END
> <s_m_entry_id>
27229

> <s_m_entry_name>
data_maestro.29

> <s_m_Source_Path>
C:\Users\olshana1\Git\GramNeg-Accumulation\Gram Negative Permeation - OmpF

> <s_m_Source_File>
data_maestro.csv

> <i_m_Source_File_Index>
29

> <s_m_job_name>
glide-dock_Nicaido_neutral

> <s_i_glide_gridfile>
3POX-grid

> <i_i_glide_lignum>
36

> <i_i_glide_rotatable_bonds>
14

> <r_i_docking_score>
-6.7200472396668

> <r_i_glide_ligand_efficiency>
-0.186667978879633

> <r_i_glide_ligand_efficiency_sa>
-0.616364085222497

> <r_i_glide_ligand_efficiency_ln>
-1.46613275300011

> <r_i_glide_gscore>
-6.7200472396668

> <r_i_glide_lipo>
-0.263660272838492

> <r_i_glide_hbond>
-1.03671238688327

> <r_i_glide_metal>
0

> <r_i_glide_rewards>
0.0550266906669338

> <r_i_glide_evdw>
-30.9090805053711

> <r_i_glide_ecoul>
-28.21311378479

> <r_i_glide_erotb>
0.900147327125679

> <r_i_glide_esite>
-0.829394572469098

> <r_i_glide_emodel>
-94.6856248688774

> <r_i_glide_energy>
-59.1221942901611

> <r_i_glide_einternal>
18.7179317474365

> <i_i_glide_confnum>
773

> <i_i_glide_posenum>
208

> <r_i_glide_eff_state_penalty>
0

> <r_glide_res:A132_vdw>
-0.1489858671855

> <r_glide_res:A132_coul>
-36.4354369432269

> <r_glide_res:A132_hbond>
-0.24842882073777

> <r_glide_res:A132_dist>
1.94875625106153

> <r_glide_res:A132_Eint>
-36.8328516311502

> <r_glide_res:A117_vdw>
-6.28649255978798

> <r_glide_res:A117_coul>
9.81818029623661

> <r_glide_res:A117_hbond>
-0.152

> <r_glide_res:A117_dist>
1.86057453230293

> <r_glide_res:A117_Eint>
3.37968773644862

> <r_glide_res:A113_vdw>
-1.29897269866477

> <r_glide_res:A113_coul>
-7.35826410396503

> <r_glide_res:A113_hbond>
-0.0119958202761586

> <r_glide_res:A113_dist>
2.41894533798845

> <r_glide_res:A113_Eint>
-8.66923262290596

> <r_glide_res:A82_vdw>
-0.917001251478828

> <r_glide_res:A82_coul>
-28.6123772496904

> <r_glide_res:A82_hbond>
0

> <r_glide_res:A82_dist>
3.30737330549388

> <r_glide_res:A82_Eint>
-29.5293785011692

> <r_glide_res:A42_vdw>
-0.843034001973475

> <r_glide_res:A42_coul>
-38.5313202182867

> <r_glide_res:A42_hbond>
-0.152

> <r_glide_res:A42_dist>
1.81967239103461

> <r_glide_res:A42_Eint>
-39.5263542202601

> <r_glide_res:A16_vdw>
2.8562645915232

> <r_glide_res:A16_coul>
-66.529311124175

> <r_glide_res:A16_hbond>
-0.168287745869338

> <r_glide_res:A16_dist>
1.7440169958197

> <r_glide_res:A16_Eint>
-63.8413342785212

> <s_m_source_file>
ligprep_Nicaido_neutral.maegz

> <i_m_source_file_index>
29

> <i_lp_mmshare_version>
58128

> <i_f3d_flags>
0

> <s_lp_Force_Field>
S-OPLS

> <r_lp_Energy>
60.848016

> <b_lp_Chiralities_Consistent>
1

> <s_lp_Variant>
Nocardicin B-1

> <s_epik_input>
W2NIXTFbY0hdYyhbT0hdKVtjSF1bY0hdYzFbQ0BIXShDKD1PKVtPSF0pTjJbQ0gyXVtDQEBIXShDMj1PKVtOSF1DKD1PKS9DKD1OL1tPSF0pYzNbY0hdW2NIXWMoW2NIXVtjSF0zKU9bQ0gyXVtDSDJdW0NAQEhdKFtOSDJdKUMoPU8pW09IXQ==

> <s_epik_cmdline>
J2VwaWtfcHl0aG9uJywgJy1waHQnLCAnMC4wJywgJy1waCcsICc3LjQnLCAnLW50JywgJy1tYScsICc1MDAnLCAnLWltYWUnLCAnPGluZmlsZS5tYWU+JywgJy1vbWFlJywgJzxvdXRmaWxlLm1hZT4n

> <r_lp_tautomer_probability>
1

> <r_epik_Ionization_Penalty>
  0.0116

> <r_epik_Ionization_Penalty_Charging>
  0.0086

> <r_epik_Ionization_Penalty_Neutral>
  0.0030

> <r_epik_State_Penalty>
  0.0000

> <r_epik_Charging_Adjusted_Penalty>
0.0085560600321308

> <i_epik_Tot_Q>
-1

> <i_epik_Tot_abs_Q>
3

> <s_epik_Chemistry_Notes>
This compound has an imine and may undergo hydrolysis.

> <s_m_subgroup_title>
glide-dock_Nicaido_neutral_pv1

> <s_m_subgroupid>
glide-dock_Nicaido_neutral_pv1

> <b_m_subgroup_collapsed>
0

$$$$
BL-S217
                    3D
 Schrodinger Suite 2022-2.
 48 50  0  0  1  0            999 V2000
  -29.3006  -23.5948  -22.9240 O   0  0  0  0  0  0
  -29.6282  -22.5044  -22.4982 C   0  0  0  0  0  0
  -30.0694  -21.8801  -21.1542 C   0  0  2  0  0  0
  -29.8319  -20.5227  -21.8425 C   0  0  1  0  0  0
  -29.7655  -21.2565  -23.0865 N   0  0  0  0  0  0
  -29.5996  -20.6149  -24.3222 C   0  0  0  0  0  0
  -29.0623  -21.5458  -25.4375 C   0  0  0  0  0  0
  -29.8214  -21.7256  -26.4136 O   0  5  0  0  0  0
  -27.9693  -22.1132  -25.2134 O   0  0  0  0  0  0
  -29.8358  -19.2872  -24.5093 C   0  0  0  0  0  0
  -30.3773  -18.3679  -23.4104 C   0  0  0  0  0  0
  -31.1197  -19.2535  -22.0134 S   0  0  0  0  0  0
  -29.5267  -18.5577  -25.8156 C   0  0  0  0  0  0
  -30.6649  -17.8654  -26.3070 O   0  0  0  0  0  0
  -30.7721  -17.5653  -27.6098 C   0  0  0  0  0  0
  -31.9806  -16.6877  -27.9026 C   0  0  0  0  0  0
  -30.0282  -17.9533  -28.5122 O   0  0  0  0  0  0
  -29.1686  -22.0049  -20.0132 N   0  0  0  0  0  0
  -28.3182  -22.9775  -19.6446 C   0  0  0  0  0  0
  -27.7154  -22.8386  -18.2464 C   0  0  0  0  0  0
  -25.9000  -22.7998  -18.2601 S   0  0  0  0  0  0
  -25.4654  -21.0931  -18.2801 C   0  0  0  0  0  0
  -24.7226  -20.5513  -17.2138 C   0  0  0  0  0  0
  -24.3855  -19.1819  -17.2366 C   0  0  0  0  0  0
  -24.7688  -18.3993  -18.2773 N   0  3  0  0  0  0
  -24.4147  -16.9741  -18.2805 C   0  0  0  0  0  0
  -25.4731  -18.9001  -19.3251 C   0  0  0  0  0  0
  -25.8451  -20.2609  -19.3531 C   0  0  0  0  0  0
  -28.0161  -23.9495  -20.3394 O   0  0  0  0  0  0
  -31.1181  -22.0355  -20.8956 H   0  0  0  0  0  0
  -28.8646  -20.0690  -21.6112 H   0  0  0  0  0  0
  -29.5692  -17.7380  -23.0414 H   0  0  0  0  0  0
  -31.1382  -17.6970  -23.8092 H   0  0  0  0  0  0
  -28.7340  -17.8328  -25.6279 H   0  0  0  0  0  0
  -29.1438  -19.2424  -26.5702 H   0  0  0  0  0  0
  -32.2226  -16.7094  -28.9655 H   0  0  0  0  0  0
  -32.8484  -17.0331  -27.3402 H   0  0  0  0  0  0
  -31.7679  -15.6573  -27.6144 H   0  0  0  0  0  0
  -29.3928  -21.3267  -19.2904 H   0  0  0  0  0  0
  -28.0336  -23.6963  -17.6528 H   0  0  0  0  0  0
  -28.0951  -21.9512  -17.7365 H   0  0  0  0  0  0
  -24.4364  -21.1721  -16.3762 H   0  0  0  0  0  0
  -23.8362  -18.7012  -16.4380 H   0  0  0  0  0  0
  -23.7595  -16.7496  -17.4384 H   0  0  0  0  0  0
  -23.8978  -16.7503  -19.2128 H   0  0  0  0  0  0
  -25.3322  -16.3920  -18.2000 H   0  0  0  0  0  0
  -25.7401  -18.2000  -20.1046 H   0  0  0  0  0  0
  -26.4178  -20.6490  -20.1834 H   0  0  0  0  0  0
  1  2  2  0  0  0
  2  5  1  0  0  0
  2  3  1  0  0  0
  3  4  1  0  0  0
  3 18  1  0  0  0
  3 30  1  0  0  0
  4 12  1  0  0  0
  4  5  1  0  0  0
  4 31  1  0  0  0
  5  6  1  0  0  0
  6  7  1  0  0  0
  6 10  2  0  0  0
  7  8  1  0  0  0
  7  9  2  0  0  0
 10 11  1  0  0  0
 10 13  1  0  0  0
 11 12  1  0  0  0
 11 32  1  0  0  0
 11 33  1  0  0  0
 13 14  1  0  0  0
 13 34  1  0  0  0
 13 35  1  0  0  0
 14 15  1  0  0  0
 15 16  1  0  0  0
 15 17  2  0  0  0
 16 36  1  0  0  0
 16 37  1  0  0  0
 16 38  1  0  0  0
 18 19  1  0  0  0
 18 39  1  0  0  0
 19 20  1  0  0  0
 19 29  2  0  0  0
 20 21  1  0  0  0
 20 40  1  0  0  0
 20 41  1  0  0  0
 21 22  1  0  0  0
 22 28  1  0  0  0
 22 23  2  0  0  0
 23 24  1  0  0  0
 23 42  1  0  0  0
 24 25  2  0  0  0
 24 43  1  0  0  0
 25 26  1  0  0  0
 25 27  1  0  0  0
 26 44  1  0  0  0
 26 45  1  0  0  0
 26 46  1  0  0  0
 27 28  2  0  0  0
 27 47  1  0  0  0
 28 48  1  0  0  0
M  CHG  2   8  -1  25   1
M  END
> <s_m_entry_id>
27230

> <s_m_entry_name>
data_maestro.17

> <s_m_Source_Path>
C:\Users\olshana1\Git\GramNeg-Accumulation\Gram Negative Permeation - OmpF

> <s_m_Source_File>
data_maestro.csv

> <i_m_Source_File_Index>
17

> <s_m_job_name>
glide-dock_Nicaido_neutral

> <s_i_glide_gridfile>
3POX-grid

> <i_i_glide_lignum>
22

> <i_i_glide_rotatable_bonds>
9

> <r_i_docking_score>
-6.61282866245138

> <r_i_glide_ligand_efficiency>
-0.228028574567289

> <r_i_glide_ligand_efficiency_sa>
-0.700576025593893

> <r_i_glide_ligand_efficiency_ln>
-1.5141700768349

> <r_i_glide_gscore>
-6.61282866245138

> <r_i_glide_lipo>
-0.227142977918348

> <r_i_glide_hbond>
-1.02568909668501

> <r_i_glide_metal>
0

> <r_i_glide_rewards>
-0.646087216170472

> <r_i_glide_evdw>
-34.1093139648438

> <r_i_glide_ecoul>
-21.233570098877

> <r_i_glide_erotb>
0.729326637690335

> <r_i_glide_esite>
-0.552734796294159

> <r_i_glide_emodel>
-94.7068325531723

> <r_i_glide_energy>
-55.3428840637207

> <r_i_glide_einternal>
5.65673065185547

> <i_i_glide_confnum>
59

> <i_i_glide_posenum>
193

> <r_i_glide_eff_state_penalty>
0

> <r_glide_res:A132_vdw>
-0.323205653378209

> <r_glide_res:A132_coul>
-17.1210787132272

> <r_glide_res:A132_hbond>
-0.16

> <r_glide_res:A132_dist>
1.76885257933157

> <r_glide_res:A132_Eint>
-17.6042843666055

> <r_glide_res:A117_vdw>
-4.48558966924123

> <r_glide_res:A117_coul>
0.697576446036796

> <r_glide_res:A117_hbond>
0

> <r_glide_res:A117_dist>
2.26954704063663

> <r_glide_res:A117_Eint>
-3.78801322320444

> <r_glide_res:A113_vdw>
-2.15617751345717

> <r_glide_res:A113_coul>
-15.5135080472239

> <r_glide_res:A113_hbond>
-0.130163959507092

> <r_glide_res:A113_dist>
2.1751067171952

> <r_glide_res:A113_Eint>
-17.7998495201881

> <r_glide_res:A82_vdw>
-1.57850701607455

> <r_glide_res:A82_coul>
-25.9033154733042

> <r_glide_res:A82_hbond>
-0.130734888477946

> <r_glide_res:A82_dist>
2.17316277880513

> <r_glide_res:A82_Eint>
-27.6125573778567

> <r_glide_res:A42_vdw>
1.39926876136048

> <r_glide_res:A42_coul>
-40.4346956221776

> <r_glide_res:A42_hbond>
-0.369512180940074

> <r_glide_res:A42_dist>
1.71538700804287

> <r_glide_res:A42_Eint>
-39.4049390417572

> <r_glide_res:A16_vdw>
-0.957647674913137

> <r_glide_res:A16_coul>
-37.2689742348055

> <r_glide_res:A16_hbond>
-0.235278067759897

> <r_glide_res:A16_dist>
1.85778365884678

> <r_glide_res:A16_Eint>
-38.4618999774786

> <s_m_source_file>
ligprep_Nicaido_neutral.maegz

> <i_m_source_file_index>
17

> <i_lp_mmshare_version>
58128

> <i_f3d_flags>
0

> <s_lp_Force_Field>
S-OPLS

> <r_lp_Energy>
45.233938

> <b_lp_Chiralities_Consistent>
1

> <s_lp_Variant>
BL-S217-1

> <s_epik_input>
W0NIM11DKD1PKU9bQ0gyXUMoW0NIMl1TMSk9QyhDKD1PKVtPSF0pTihbQ0BASF0xMilDKD1PKVtDQEhdMltOSF1DKD1PKVtDSDJdU2MzW2NIXVtjSF1bbitdKFtDSDNdKVtjSF1bY0hdMw==

> <s_epik_cmdline>
J2VwaWtfcHl0aG9uJywgJy1waHQnLCAnMC4wJywgJy1waCcsICc3LjQnLCAnLW50JywgJy1tYScsICc1MDAnLCAnLWltYWUnLCAnPGluZmlsZS5tYWU+JywgJy1vbWFlJywgJzxvdXRmaWxlLm1hZT4n

> <r_lp_tautomer_probability>
1

> <r_epik_Ionization_Penalty>
  0.0000

> <r_epik_Ionization_Penalty_Charging>
  0.0000

> <r_epik_Ionization_Penalty_Neutral>
  0.0000

> <r_epik_State_Penalty>
  0.0000

> <r_epik_Charging_Adjusted_Penalty>
6.14912740637116e-06

> <i_epik_Tot_Q>
0

> <i_epik_Tot_abs_Q>
2

> <s_epik_Chemistry_Notes>
This compound has an ester and may undergo hydrolysis at high or low pH. This compound contains an acetal/aminal-like group ( X-CH(R)-Y where X, Y are N, S, or O) that may be acid/base labile, releasing an aldehyde.

> <s_m_subgroup_title>
glide-dock_Nicaido_neutral_pv1

> <s_m_subgroupid>
glide-dock_Nicaido_neutral_pv1

> <b_m_subgroup_collapsed>
0

$$$$
Nocardicin B
                    3D
 Schrodinger Suite 2022-2.
 59 61  0  0  1  0            999 V2000
  -30.4983  -20.6729  -26.4120 O   0  0  0  0  0  0
  -30.4335  -19.7832  -25.5906 C   0  0  0  0  0  0
  -29.7795  -19.6301  -24.2108 C   0  0  2  0  0  0
  -30.3290  -18.2024  -24.2511 C   0  0  0  0  0  0
  -30.9101  -18.4902  -25.5720 N   0  0  0  0  0  0
  -31.5844  -17.6230  -26.5534 C   0  0  2  0  0  0
  -32.8338  -17.0011  -25.9891 C   0  0  0  0  0  0
  -33.3298  -15.8041  -26.5583 C   0  0  0  0  0  0
  -34.4629  -15.1496  -26.0398 C   0  0  0  0  0  0
  -35.1354  -15.6809  -24.9256 C   0  0  0  0  0  0
  -34.6779  -16.8779  -24.3502 C   0  0  0  0  0  0
  -33.5501  -17.5315  -24.8847 C   0  0  0  0  0  0
  -36.2290  -15.0449  -24.4132 O   0  0  0  0  0  0
  -31.9839  -18.3494  -27.8594 C   0  0  0  0  0  0
  -31.1727  -18.3059  -28.8129 O   0  5  0  0  0  0
  -33.0249  -19.0451  -27.8776 O   0  0  0  0  0  0
  -28.3171  -19.6424  -24.2445 N   0  0  0  0  0  0
  -27.5435  -20.6132  -24.7624 C   0  0  0  0  0  0
  -26.0951  -20.2385  -24.7488 C   0  0  0  0  0  0
  -25.5145  -20.2745  -23.3839 C   0  0  0  0  0  0
  -25.1155  -19.0996  -22.7119 C   0  0  0  0  0  0
  -24.6936  -19.1575  -21.3684 C   0  0  0  0  0  0
  -24.6641  -20.3853  -20.6758 C   0  0  0  0  0  0
  -24.9898  -21.5708  -21.3786 C   0  0  0  0  0  0
  -25.4156  -21.5121  -22.7146 C   0  0  0  0  0  0
  -24.3515  -20.3585  -19.3319 O   0  0  0  0  0  0
  -24.7984  -21.4457  -18.5240 C   0  0  0  0  0  0
  -26.3413  -21.4644  -18.4131 C   0  0  0  0  0  0
  -26.9381  -22.8008  -17.9252 C   0  0  2  0  0  0
  -26.7788  -23.9208  -18.9767 C   0  0  0  0  0  0
  -27.5689  -23.9495  -19.9491 O   0  5  0  0  0  0
  -25.8560  -24.7495  -18.8126 O   0  0  0  0  0  0
  -28.3689  -22.6246  -17.6176 N   0  3  0  0  0  0
  -25.4986  -19.9496  -25.8315 N   0  0  0  0  0  0
  -24.1570  -19.5496  -25.5642 O   0  0  0  0  0  0
  -27.9352  -21.6945  -25.2132 O   0  0  0  0  0  0
  -30.2182  -20.2343  -23.4159 H   0  0  0  0  0  0
  -31.0656  -18.0011  -23.4714 H   0  0  0  0  0  0
  -29.5693  -17.4265  -24.2651 H   0  0  0  0  0  0
  -30.8752  -16.8360  -26.8153 H   0  0  0  0  0  0
  -32.8130  -15.3653  -27.3992 H   0  0  0  0  0  0
  -34.7983  -14.2272  -26.4906 H   0  0  0  0  0  0
  -35.1903  -17.2974  -23.4968 H   0  0  0  0  0  0
  -33.2301  -18.4523  -24.4220 H   0  0  0  0  0  0
  -36.5442  -14.3551  -24.9788 H   0  0  0  0  0  0
  -27.8558  -18.8077  -23.9035 H   0  0  0  0  0  0
  -25.1716  -18.1403  -23.2091 H   0  0  0  0  0  0
  -24.4371  -18.2443  -20.8516 H   0  0  0  0  0  0
  -24.9634  -22.5391  -20.9063 H   0  0  0  0  0  0
  -25.7035  -22.4256  -23.2129 H   0  0  0  0  0  0
  -24.3785  -21.3145  -17.5264 H   0  0  0  0  0  0
  -24.3801  -22.3865  -18.8787 H   0  0  0  0  0  0
  -26.8044  -21.2139  -19.3681 H   0  0  0  0  0  0
  -26.6396  -20.6580  -17.7406 H   0  0  0  0  0  0
  -26.4432  -23.0968  -16.9995 H   0  0  0  0  0  0
  -28.7447  -23.5000  -17.2860 H   0  0  0  0  0  0
  -28.4796  -21.9148  -16.9084 H   0  0  0  0  0  0
  -24.2337  -18.5941  -25.6136 H   0  0  0  0  0  0
  -28.8773  -22.3478  -18.4481 H   0  0  0  0  0  0
  1  2  2  0  0  0
  2  5  1  0  0  0
  2  3  1  0  0  0
  3  4  1  0  0  0
  3 17  1  0  0  0
  3 37  1  0  0  0
  4  5  1  0  0  0
  4 38  1  0  0  0
  4 39  1  0  0  0
  5  6  1  0  0  0
  6  7  1  0  0  0
  6 14  1  0  0  0
  6 40  1  0  0  0
  7 12  1  0  0  0
  7  8  2  0  0  0
  8  9  1  0  0  0
  8 41  1  0  0  0
  9 10  2  0  0  0
  9 42  1  0  0  0
 10 11  1  0  0  0
 10 13  1  0  0  0
 11 12  2  0  0  0
 11 43  1  0  0  0
 12 44  1  0  0  0
 13 45  1  0  0  0
 14 15  1  0  0  0
 14 16  2  0  0  0
 17 18  1  0  0  0
 17 46  1  0  0  0
 18 19  1  0  0  0
 18 36  2  0  0  0
 19 20  1  0  0  0
 19 34  2  3  0  0
 20 25  1  0  0  0
 20 21  2  0  0  0
 21 22  1  0  0  0
 21 47  1  0  0  0
 22 23  2  0  0  0
 22 48  1  0  0  0
 23 24  1  0  0  0
 23 26  1  0  0  0
 24 25  2  0  0  0
 24 49  1  0  0  0
 25 50  1  0  0  0
 26 27  1  0  0  0
 27 28  1  0  0  0
 27 51  1  0  0  0
 27 52  1  0  0  0
 28 29  1  0  0  0
 28 53  1  0  0  0
 28 54  1  0  0  0
 29 30  1  0  0  0
 29 33  1  0  0  0
 29 55  1  0  0  0
 30 31  1  0  0  0
 30 32  2  0  0  0
 33 56  1  0  0  0
 33 57  1  0  0  0
 33 59  1  0  0  0
 34 35  1  0  0  0
 35 58  1  0  0  0
M  CHG  3  15  -1  31  -1  33   1
M  END
> <s_m_entry_id>
27231

> <s_m_entry_name>
data_maestro.29

> <s_m_Source_Path>
C:\Users\olshana1\Git\GramNeg-Accumulation\Gram Negative Permeation - OmpF

> <s_m_Source_File>
data_maestro.csv

> <i_m_Source_File_Index>
29

> <s_m_job_name>
glide-dock_Nicaido_neutral

> <s_i_glide_gridfile>
3POX-grid

> <i_i_glide_lignum>
36

> <i_i_glide_rotatable_bonds>
14

> <r_i_docking_score>
-6.51760777976812

> <r_i_glide_ligand_efficiency>
-0.181044660549114

> <r_i_glide_ligand_efficiency_sa>
-0.597796297219927

> <r_i_glide_ligand_efficiency_ln>
-1.42196593213237

> <r_i_glide_gscore>
-6.51760777976812

> <r_i_glide_lipo>
-0.248261392688239

> <r_i_glide_hbond>
-0.898456016650102

> <r_i_glide_metal>
0

> <r_i_glide_rewards>
0.0422971984562719

> <r_i_glide_evdw>
-32.5729942321777

> <r_i_glide_ecoul>
-25.6698017120361

> <r_i_glide_erotb>
0.900147327125679

> <r_i_glide_esite>
-0.83421492759742

> <r_i_glide_emodel>
-92.8935662684213

> <r_i_glide_energy>
-58.2427959442139

> <r_i_glide_einternal>
17.8993263244629

> <i_i_glide_confnum>
773

> <i_i_glide_posenum>
72

> <r_i_glide_eff_state_penalty>
0

> <r_glide_res:A132_vdw>
-0.127803844632227

> <r_glide_res:A132_coul>
-36.5390574584522

> <r_glide_res:A132_hbond>
-0.248980167579955

> <r_glide_res:A132_dist>
1.94861640179822

> <r_glide_res:A132_Eint>
-36.9158414706644

> <r_glide_res:A117_vdw>
-6.36166327579732

> <r_glide_res:A117_coul>
11.3819564639818

> <r_glide_res:A117_hbond>
-0.16

> <r_glide_res:A117_dist>
1.83736769588421

> <r_glide_res:A117_Eint>
4.86029318818445

> <r_glide_res:A113_vdw>
-1.24153516191999

> <r_glide_res:A113_coul>
-6.56304842396683

> <r_glide_res:A113_hbond>
-0.013336466049307

> <r_glide_res:A113_dist>
2.41379840580947

> <r_glide_res:A113_Eint>
-7.81792005193613

> <r_glide_res:A82_vdw>
-0.895552052621221

> <r_glide_res:A82_coul>
-28.4462943610073

> <r_glide_res:A82_hbond>
0

> <r_glide_res:A82_dist>
3.23115088421635

> <r_glide_res:A82_Eint>
-29.3418464136285

> <r_glide_res:A42_vdw>
-1.4395210499555

> <r_glide_res:A42_coul>
-37.9182111220297

> <r_glide_res:A42_hbond>
-0.16

> <r_glide_res:A42_dist>
1.94736962217855

> <r_glide_res:A42_Eint>
-39.5177321719852

> <r_glide_res:A16_vdw>
4.04929896587233

> <r_glide_res:A16_coul>
-69.7523603666531

> <r_glide_res:A16_hbond>
-0.242827123375958

> <r_glide_res:A16_dist>
1.78773627045064

> <r_glide_res:A16_Eint>
-65.9458885241567

> <s_m_source_file>
ligprep_Nicaido_neutral.maegz

> <i_m_source_file_index>
29

> <i_lp_mmshare_version>
58128

> <i_f3d_flags>
0

> <s_lp_Force_Field>
S-OPLS

> <r_lp_Energy>
60.848016

> <b_lp_Chiralities_Consistent>
1

> <s_lp_Variant>
Nocardicin B-1

> <s_epik_input>
W2NIXTFbY0hdYyhbT0hdKVtjSF1bY0hdYzFbQ0BIXShDKD1PKVtPSF0pTjJbQ0gyXVtDQEBIXShDMj1PKVtOSF1DKD1PKS9DKD1OL1tPSF0pYzNbY0hdW2NIXWMoW2NIXVtjSF0zKU9bQ0gyXVtDSDJdW0NAQEhdKFtOSDJdKUMoPU8pW09IXQ==

> <s_epik_cmdline>
J2VwaWtfcHl0aG9uJywgJy1waHQnLCAnMC4wJywgJy1waCcsICc3LjQnLCAnLW50JywgJy1tYScsICc1MDAnLCAnLWltYWUnLCAnPGluZmlsZS5tYWU+JywgJy1vbWFlJywgJzxvdXRmaWxlLm1hZT4n

> <r_lp_tautomer_probability>
1

> <r_epik_Ionization_Penalty>
  0.0116

> <r_epik_Ionization_Penalty_Charging>
  0.0086

> <r_epik_Ionization_Penalty_Neutral>
  0.0030

> <r_epik_State_Penalty>
  0.0000

> <r_epik_Charging_Adjusted_Penalty>
0.0085560600321308

> <i_epik_Tot_Q>
-1

> <i_epik_Tot_abs_Q>
3

> <s_epik_Chemistry_Notes>
This compound has an imine and may undergo hydrolysis.

> <s_m_subgroup_title>
glide-dock_Nicaido_neutral_pv1

> <s_m_subgroupid>
glide-dock_Nicaido_neutral_pv1

> <b_m_subgroup_collapsed>
0

$$$$
Ceftazidime
                    3D
 Schrodinger Suite 2022-2.
 58 61  0  0  1  0            999 V2000
  -33.9456  -23.4911  -27.9244 C   0  0  0  0  0  0
  -32.6891  -24.1464  -27.2888 C   0  0  0  0  0  0
  -33.0786  -25.0491  -26.0971 C   0  0  0  0  0  0
  -31.9689  -25.0371  -28.3398 C   0  0  0  0  0  0
  -30.8719  -25.5496  -28.0134 O   0  5  0  0  0  0
  -32.4578  -25.1399  -29.4872 O   0  0  0  0  0  0
  -31.7541  -23.1502  -26.8258 O   0  0  0  0  0  0
  -32.3742  -22.2146  -25.9605 N   0  0  0  0  0  0
  -31.6194  -21.7162  -25.0536 C   0  0  0  0  0  0
  -30.1687  -22.1238  -24.7622 C   0  0  0  0  0  0
  -29.4716  -21.2840  -23.9796 N   0  0  0  0  0  0
  -28.0724  -21.4727  -23.5949 C   0  0  1  0  0  0
  -27.7053  -20.6438  -22.3516 C   0  0  2  0  0  0
  -27.4672  -21.8932  -21.6549 N   0  0  0  0  0  0
  -27.0792  -21.9602  -20.3086 C   0  0  0  0  0  0
  -26.4716  -23.3271  -19.8378 C   0  0  0  0  0  0
  -25.3169  -23.2858  -19.3630 O   0  5  0  0  0  0
  -27.1688  -24.3495  -20.0135 O   0  0  0  0  0  0
  -27.3108  -20.9360  -19.4468 C   0  0  0  0  0  0
  -26.9960  -21.0379  -17.9544 C   0  0  0  0  0  0
  -25.5780  -20.7565  -17.6134 N   0  3  0  0  0  0
  -25.0070  -19.5803  -17.9824 C   0  0  0  0  0  0
  -23.6873  -19.2652  -17.5996 C   0  0  0  0  0  0
  -22.9590  -20.1849  -16.8199 C   0  0  0  0  0  0
  -23.5701  -21.3957  -16.4416 C   0  0  0  0  0  0
  -24.8916  -21.6562  -16.8576 C   0  0  0  0  0  0
  -28.0241  -19.6332  -19.8458 C   0  0  0  0  0  0
  -28.9257  -19.6939  -21.4143 S   0  0  0  0  0  0
  -27.7947  -22.7188  -22.7087 C   0  0  0  0  0  0
  -27.8514  -23.9267  -22.8133 O   0  0  0  0  0  0
  -29.6639  -23.1495  -25.2124 O   0  0  0  0  0  0
  -32.1537  -20.6032  -24.2201 C   0  0  0  0  0  0
  -32.2325  -20.6675  -22.8446 C   0  0  0  0  0  0
  -32.8371  -19.1851  -22.1504 S   0  0  0  0  0  0
  -33.0078  -18.5444  -23.7766 C   0  0  0  0  0  0
  -33.4923  -17.2723  -24.0134 N   0  0  0  0  0  0
  -32.6283  -19.3902  -24.7348 N   0  0  0  0  0  0
  -34.6117  -24.2401  -28.3551 H   0  0  0  0  0  0
  -34.5382  -22.9392  -27.1951 H   0  0  0  0  0  0
  -33.6702  -22.7984  -28.7200 H   0  0  0  0  0  0
  -33.6873  -25.8938  -26.4230 H   0  0  0  0  0  0
  -32.1947  -25.4516  -25.6010 H   0  0  0  0  0  0
  -33.6558  -24.5059  -25.3492 H   0  0  0  0  0  0
  -29.9335  -20.4710  -23.5918 H   0  0  0  0  0  0
  -27.3681  -21.3197  -24.4130 H   0  0  0  0  0  0
  -26.7799  -20.0779  -22.4762 H   0  0  0  0  0  0
  -27.6063  -20.3496  -17.3829 H   0  0  0  0  0  0
  -27.2602  -22.0276  -17.5803 H   0  0  0  0  0  0
  -25.6190  -18.8959  -18.5458 H   0  0  0  0  0  0
  -23.2478  -18.3193  -17.8843 H   0  0  0  0  0  0
  -21.9509  -19.9572  -16.5044 H   0  0  0  0  0  0
  -23.0418  -22.1086  -15.8253 H   0  0  0  0  0  0
  -25.4170  -22.5599  -16.5825 H   0  0  0  0  0  0
  -28.7682  -19.3653  -19.0958 H   0  0  0  0  0  0
  -27.3101  -18.8139  -19.9002 H   0  0  0  0  0  0
  -31.9495  -21.4766  -22.1857 H   0  0  0  0  0  0
  -33.3203  -16.8943  -24.9325 H   0  0  0  0  0  0
  -33.3425  -16.6028  -23.2665 H   0  0  0  0  0  0
  1  2  1  0  0  0
  1 38  1  0  0  0
  1 39  1  0  0  0
  1 40  1  0  0  0
  2  3  1  0  0  0
  2  4  1  0  0  0
  2  7  1  0  0  0
  3 41  1  0  0  0
  3 42  1  0  0  0
  3 43  1  0  0  0
  4  5  1  0  0  0
  4  6  2  0  0  0
  7  8  1  0  0  0
  8  9  2  3  0  0
  9 10  1  0  0  0
  9 32  1  0  0  0
 10 11  1  0  0  0
 10 31  2  0  0  0
 11 12  1  0  0  0
 11 44  1  0  0  0
 12 29  1  0  0  0
 12 13  1  0  0  0
 12 45  1  0  0  0
 13 28  1  0  0  0
 13 14  1  0  0  0
 13 46  1  0  0  0
 14 15  1  0  0  0
 14 29  1  0  0  0
 15 16  1  0  0  0
 15 19  2  0  0  0
 16 17  1  0  0  0
 16 18  2  0  0  0
 19 20  1  0  0  0
 19 27  1  0  0  0
 20 21  1  0  0  0
 20 47  1  0  0  0
 20 48  1  0  0  0
 21 26  1  0  0  0
 21 22  2  0  0  0
 22 23  1  0  0  0
 22 49  1  0  0  0
 23 24  2  0  0  0
 23 50  1  0  0  0
 24 25  1  0  0  0
 24 51  1  0  0  0
 25 26  2  0  0  0
 25 52  1  0  0  0
 26 53  1  0  0  0
 27 28  1  0  0  0
 27 54  1  0  0  0
 27 55  1  0  0  0
 29 30  2  0  0  0
 32 37  1  0  0  0
 32 33  2  0  0  0
 33 34  1  0  0  0
 33 56  1  0  0  0
 34 35  1  0  0  0
 35 36  1  0  0  0
 35 37  2  0  0  0
 36 57  1  0  0  0
 36 58  1  0  0  0
M  CHG  3   5  -1  17  -1  21   1
M  END
> <s_m_entry_id>
27232

> <s_m_entry_name>
data_maestro.30

> <s_m_Source_Path>
C:\Users\olshana1\Git\GramNeg-Accumulation\Gram Negative Permeation - OmpF

> <s_m_Source_File>
data_maestro.csv

> <i_m_Source_File_Index>
30

> <s_m_job_name>
glide-dock_Nicaido_neutral

> <s_i_glide_gridfile>
3POX-grid

> <i_i_glide_lignum>
39

> <i_i_glide_rotatable_bonds>
10

> <r_i_docking_score>
-6.46784162755078

> <r_i_glide_ligand_efficiency>
-0.174806530474345

> <r_i_glide_ligand_efficiency_sa>
-0.582494139955915

> <r_i_glide_ligand_efficiency_ln>
-1.40272322129492

> <r_i_glide_gscore>
-6.46784162755078

> <r_i_glide_lipo>
0

> <r_i_glide_hbond>
-1.12425503526836

> <r_i_glide_metal>
0

> <r_i_glide_rewards>
-0.0183059292356287

> <r_i_glide_evdw>
-28.0642604827881

> <r_i_glide_ecoul>
-24.9322242736816

> <r_i_glide_erotb>
0.556495996469625

> <r_i_glide_esite>
-0.738729994324761

> <r_i_glide_emodel>
-95.381226735682

> <r_i_glide_energy>
-52.9964847564697

> <r_i_glide_einternal>
7.42479658126831

> <i_i_glide_confnum>
176

> <i_i_glide_posenum>
263

> <r_i_glide_eff_state_penalty>
0

> <r_glide_res:A132_vdw>
1.2078587786386

> <r_glide_res:A132_coul>
-49.0385725320627

> <r_glide_res:A132_hbond>
-0.324790720186343

> <r_glide_res:A132_dist>
1.78369783133486

> <r_glide_res:A132_Eint>
-48.1555044736105

> <r_glide_res:A117_vdw>
-2.38357131032446

> <r_glide_res:A117_coul>
11.349697615759

> <r_glide_res:A117_hbond>
0

> <r_glide_res:A117_dist>
3.36401068278507

> <r_glide_res:A117_Eint>
8.96612630543458

> <r_glide_res:A113_vdw>
-3.86845399677099

> <r_glide_res:A113_coul>
10.8555173459284

> <r_glide_res:A113_hbond>
0

> <r_glide_res:A113_dist>
2.22373623983788

> <r_glide_res:A113_Eint>
6.98706334915743

> <r_glide_res:A82_vdw>
-0.421662139144246

> <r_glide_res:A82_coul>
-52.5592644377748

> <r_glide_res:A82_hbond>
-0.160760129855542

> <r_glide_res:A82_dist>
1.70627568493615

> <r_glide_res:A82_Eint>
-53.1416867067746

> <r_glide_res:A42_vdw>
3.92585915534875

> <r_glide_res:A42_coul>
-63.4849251948525

> <r_glide_res:A42_hbond>
-0.358967979689377

> <r_glide_res:A42_dist>
1.59741994922344

> <r_glide_res:A42_Eint>
-59.9180340191931

> <r_glide_res:A16_vdw>
-3.26785441211867

> <r_glide_res:A16_coul>
-45.1809652350093

> <r_glide_res:A16_hbond>
0

> <r_glide_res:A16_dist>
2.55045331546313

> <r_glide_res:A16_Eint>
-48.448819647128

> <s_m_source_file>
ligprep_Nicaido_neutral.maegz

> <i_m_source_file_index>
30

> <i_lp_mmshare_version>
58128

> <i_f3d_flags>
0

> <s_lp_Force_Field>
S-OPLS

> <r_lp_Energy>
82.572273

> <b_lp_Chiralities_Consistent>
1

> <s_lp_Variant>
Ceftazidime-2

> <s_epik_input>
W09IXUMoPU8pQyhbQ0gzXSkoW0NIM10pTy9OPUMoYzFbY0hdc2MobjEpW05IMl0pL0MoPU8pW05IXVtDQEBIXTJDKD1PKU4oW0NAQEhdMjMpQyhDKD1PKVtPSF0pPUMoW0NIMl1TMylbQ0gyXVtuK100W2NIXVtjSF1bY0hdW2NIXVtjSF00

> <s_epik_cmdline>
J2VwaWtfcHl0aG9uJywgJy1waHQnLCAnMC4wJywgJy1waCcsICc3LjQnLCAnLW50JywgJy1tYScsICc1MDAnLCAnLWltYWUnLCAnPGluZmlsZS5tYWU+JywgJy1vbWFlJywgJzxvdXRmaWxlLm1hZT4n

> <r_lp_tautomer_probability>
1

> <r_epik_Ionization_Penalty>
  0.0005

> <r_epik_Ionization_Penalty_Charging>
  0.0001

> <r_epik_Ionization_Penalty_Neutral>
  0.0005

> <r_epik_State_Penalty>
  0.0000

> <r_epik_Charging_Adjusted_Penalty>
5.84857251211915e-05

> <i_epik_Tot_Q>
-1

> <i_epik_Tot_abs_Q>
3

> <s_epik_Chemistry_Notes>
This compound has an imine and may undergo hydrolysis. This compound contains an acetal/aminal-like group ( X-CH(R)-Y where X, Y are N, S, or O) that may be acid/base labile, releasing an aldehyde.

> <s_m_subgroup_title>
glide-dock_Nicaido_neutral_pv1

> <s_m_subgroupid>
glide-dock_Nicaido_neutral_pv1

> <b_m_subgroup_collapsed>
0

$$$$
Cefoperazone
                    3D
 Schrodinger Suite 2022-2.
 70 74  0  0  1  0            999 V2000
  -36.3299  -28.6845  -20.7383 C   0  0  0  0  0  0
  -35.5136  -27.4131  -20.4642 C   0  0  0  0  0  0
  -35.4519  -26.5304  -21.6362 N   0  0  0  0  0  0
  -36.2867  -25.3323  -21.5887 C   0  0  0  0  0  0
  -36.7178  -24.9130  -23.0051 C   0  0  0  0  0  0
  -35.5754  -24.8103  -23.9452 N   0  0  0  0  0  0
  -34.5036  -25.6564  -23.7634 C   0  0  0  0  0  0
  -34.6335  -26.7751  -22.6833 C   0  0  0  0  0  0
  -33.9689  -27.8042  -22.8132 O   0  0  0  0  0  0
  -33.4387  -25.6270  -24.3949 O   0  0  0  0  0  0
  -35.7064  -23.8838  -24.9522 C   0  0  0  0  0  0
  -34.6377  -23.6908  -25.7439 N   0  0  0  0  0  0
  -34.5286  -22.8369  -26.9265 C   0  0  2  0  0  0
  -33.9439  -23.6599  -28.0409 C   0  0  0  0  0  0
  -34.4323  -23.5218  -29.3618 C   0  0  0  0  0  0
  -33.9135  -24.2848  -30.4265 C   0  0  0  0  0  0
  -32.8817  -25.2109  -30.1898 C   0  0  0  0  0  0
  -32.3747  -25.3684  -28.8893 C   0  0  0  0  0  0
  -32.8970  -24.5976  -27.8336 C   0  0  0  0  0  0
  -32.3688  -25.9495  -31.2140 O   0  0  0  0  0  0
  -33.5238  -21.6844  -26.7172 C   0  0  0  0  0  0
  -33.0161  -21.5171  -25.4881 N   0  0  0  0  0  0
  -31.8678  -20.6724  -25.1782 C   0  0  1  0  0  0
  -31.4686  -20.7611  -23.6963 C   0  0  1  0  0  0
  -30.1785  -21.2551  -24.1342 N   0  0  0  0  0  0
  -30.5375  -21.4074  -25.4612 C   0  0  0  0  0  0
  -30.0152  -21.9495  -26.4133 O   0  0  0  0  0  0
  -29.1718  -21.6108  -23.2176 C   0  0  0  0  0  0
  -28.1092  -22.6302  -23.7348 C   0  0  0  0  0  0
  -27.9683  -23.6831  -23.0702 O   0  5  0  0  0  0
  -27.5476  -22.3496  -24.8133 O   0  0  0  0  0  0
  -29.1036  -21.0607  -21.9762 C   0  0  0  0  0  0
  -30.1638  -20.1042  -21.4310 C   0  0  0  0  0  0
  -31.1710  -19.2863  -22.6932 S   0  0  0  0  0  0
  -27.9829  -21.3647  -20.9832 C   0  0  0  0  0  0
  -28.3687  -22.7449  -19.8691 S   0  0  0  0  0  0
  -26.7144  -23.2285  -19.5162 C   0  0  0  0  0  0
  -25.9432  -23.9493  -20.3211 N   0  0  0  0  0  0
  -24.7653  -24.1004  -19.6123 N   0  0  0  0  0  0
  -24.8336  -23.5101  -18.4570 N   0  0  0  0  0  0
  -26.0647  -22.9471  -18.3816 N   0  0  0  0  0  0
  -26.4616  -22.2021  -17.2135 C   0  0  0  0  0  0
  -33.1704  -20.9825  -27.6650 O   0  0  0  0  0  0
  -36.7386  -23.2395  -25.1429 O   0  0  0  0  0  0
  -36.3725  -29.3127  -19.8474 H   0  0  0  0  0  0
  -35.8918  -29.2809  -21.5371 H   0  0  0  0  0  0
  -37.3544  -28.4415  -21.0225 H   0  0  0  0  0  0
  -35.9476  -26.8864  -19.6136 H   0  0  0  0  0  0
  -34.5022  -27.6822  -20.1543 H   0  0  0  0  0  0
  -37.1760  -25.5057  -20.9803 H   0  0  0  0  0  0
  -35.7240  -24.5311  -21.1078 H   0  0  0  0  0  0
  -37.4313  -25.6367  -23.4057 H   0  0  0  0  0  0
  -37.2627  -23.9729  -22.8995 H   0  0  0  0  0  0
  -33.8358  -24.2750  -25.5381 H   0  0  0  0  0  0
  -35.4965  -22.4204  -27.2097 H   0  0  0  0  0  0
  -35.2225  -22.8140  -29.5676 H   0  0  0  0  0  0
  -34.3152  -24.1490  -31.4206 H   0  0  0  0  0  0
  -31.5889  -26.0844  -28.6978 H   0  0  0  0  0  0
  -32.4830  -24.7396  -26.8467 H   0  0  0  0  0  0
  -32.8234  -25.7962  -32.0288 H   0  0  0  0  0  0
  -33.3716  -22.1072  -24.7497 H   0  0  0  0  0  0
  -31.9321  -19.6488  -25.5480 H   0  0  0  0  0  0
  -32.0084  -21.5247  -23.1312 H   0  0  0  0  0  0
  -30.8376  -20.6907  -20.8134 H   0  0  0  0  0  0
  -29.7110  -19.3325  -20.8114 H   0  0  0  0  0  0
  -27.0583  -21.5806  -21.5153 H   0  0  0  0  0  0
  -27.7667  -20.4790  -20.3828 H   0  0  0  0  0  0
  -27.5420  -22.0511  -17.2135 H   0  0  0  0  0  0
  -26.1771  -22.7495  -16.3152 H   0  0  0  0  0  0
  -25.9688  -21.2286  -17.2133 H   0  0  0  0  0  0
  1  2  1  0  0  0
  1 45  1  0  0  0
  1 46  1  0  0  0
  1 47  1  0  0  0
  2  3  1  0  0  0
  2 48  1  0  0  0
  2 49  1  0  0  0
  3  8  1  0  0  0
  3  4  1  0  0  0
  4  5  1  0  0  0
  4 50  1  0  0  0
  4 51  1  0  0  0
  5  6  1  0  0  0
  5 52  1  0  0  0
  5 53  1  0  0  0
  6  7  1  0  0  0
  6 11  1  0  0  0
  7  8  1  0  0  0
  7 10  2  0  0  0
  8  9  2  0  0  0
 11 12  1  0  0  0
 11 44  2  0  0  0
 12 13  1  0  0  0
 12 54  1  0  0  0
 13 14  1  0  0  0
 13 21  1  0  0  0
 13 55  1  0  0  0
 14 19  1  0  0  0
 14 15  2  0  0  0
 15 16  1  0  0  0
 15 56  1  0  0  0
 16 17  2  0  0  0
 16 57  1  0  0  0
 17 18  1  0  0  0
 17 20  1  0  0  0
 18 19  2  0  0  0
 18 58  1  0  0  0
 19 59  1  0  0  0
 20 60  1  0  0  0
 21 22  1  0  0  0
 21 43  2  0  0  0
 22 23  1  0  0  0
 22 61  1  0  0  0
 23 26  1  0  0  0
 23 24  1  0  0  0
 23 62  1  0  0  0
 24 34  1  0  0  0
 24 25  1  0  0  0
 24 63  1  0  0  0
 25 26  1  0  0  0
 25 28  1  0  0  0
 26 27  2  0  0  0
 28 29  1  0  0  0
 28 32  2  0  0  0
 29 30  1  0  0  0
 29 31  2  0  0  0
 32 33  1  0  0  0
 32 35  1  0  0  0
 33 34  1  0  0  0
 33 64  1  0  0  0
 33 65  1  0  0  0
 35 36  1  0  0  0
 35 66  1  0  0  0
 35 67  1  0  0  0
 36 37  1  0  0  0
 37 41  1  0  0  0
 37 38  2  0  0  0
 38 39  1  0  0  0
 39 40  2  0  0  0
 40 41  1  0  0  0
 41 42  1  0  0  0
 42 68  1  0  0  0
 42 69  1  0  0  0
 42 70  1  0  0  0
M  CHG  1  30  -1
M  END
> <s_m_entry_id>
27233

> <s_m_entry_name>
data_maestro.8

> <s_m_Source_Path>
C:\Users\olshana1\Git\GramNeg-Accumulation\Gram Negative Permeation - OmpF

> <s_m_Source_File>
data_maestro.csv

> <i_m_Source_File_Index>
8

> <s_m_job_name>
glide-dock_Nicaido_neutral

> <s_i_glide_gridfile>
3POX-grid

> <i_i_glide_lignum>
11

> <i_i_glide_rotatable_bonds>
13

> <r_i_docking_score>
-6.44229317482262

> <r_i_glide_ligand_efficiency>
-0.146415753973241

> <r_i_glide_ligand_efficiency_sa>
-0.516898612652929

> <r_i_glide_ligand_efficiency_ln>
-1.34657981137474

> <r_i_glide_gscore>
-6.44229317482262

> <r_i_glide_lipo>
-0.263229547580036

> <r_i_glide_hbond>
-0.946385046609686

> <r_i_glide_metal>
0

> <r_i_glide_rewards>
-0.000535664258459081

> <r_i_glide_evdw>
-34.7356796264648

> <r_i_glide_ecoul>
-21.1332206726074

> <r_i_glide_erotb>
0.362700252817045

> <r_i_glide_esite>
-0.688076086977134

> <r_i_glide_emodel>
-92.4085473557156

> <r_i_glide_energy>
-55.8689002990723

> <r_i_glide_einternal>
6.44294357299805

> <i_i_glide_confnum>
573

> <i_i_glide_posenum>
377

> <r_i_glide_eff_state_penalty>
0

> <r_glide_res:A132_vdw>
-0.910859538202709

> <r_glide_res:A132_coul>
-37.464761775191

> <r_glide_res:A132_hbond>
0

> <r_glide_res:A132_dist>
1.86887019096692

> <r_glide_res:A132_Eint>
-38.3756213133937

> <r_glide_res:A117_vdw>
-1.3826852218299

> <r_glide_res:A117_coul>
26.2977698743724

> <r_glide_res:A117_hbond>
0

> <r_glide_res:A117_dist>
3.96444042594401

> <r_glide_res:A117_Eint>
24.9150846525425

> <r_glide_res:A113_vdw>
-2.37872765048102

> <r_glide_res:A113_coul>
16.362338227539

> <r_glide_res:A113_hbond>
0

> <r_glide_res:A113_dist>
2.30482288417174

> <r_glide_res:A113_Eint>
13.983610577058

> <r_glide_res:A82_vdw>
-1.26487448528551

> <r_glide_res:A82_coul>
-50.1797022215338

> <r_glide_res:A82_hbond>
-0.2

> <r_glide_res:A82_dist>
1.85131918572465

> <r_glide_res:A82_Eint>
-51.6445767068194

> <r_glide_res:A42_vdw>
-0.174190593940602

> <r_glide_res:A42_coul>
-56.6547816911185

> <r_glide_res:A42_hbond>
-0.320741834786987

> <r_glide_res:A42_dist>
1.64832049532472

> <r_glide_res:A42_Eint>
-57.1497141198461

> <r_glide_res:A16_vdw>
-2.57418803677904

> <r_glide_res:A16_coul>
-45.2164215913211

> <r_glide_res:A16_hbond>
-0.313729702519818

> <r_glide_res:A16_dist>
1.8240463256481

> <r_glide_res:A16_Eint>
-48.1043393306199

> <s_m_source_file>
ligprep_Nicaido_neutral.maegz

> <i_m_source_file_index>
8

> <i_lp_mmshare_version>
58128

> <i_f3d_flags>
0

> <s_lp_Force_Field>
S-OPLS

> <r_lp_Energy>
85.319288

> <b_lp_Chiralities_Consistent>
1

> <s_lp_Variant>
Cefoperazone-1

> <s_epik_input>
W0NIM11bQ0gyXU4xW0NIMl1bQ0gyXU4oQyg9TylDMT1PKUMoPU8pW05IXVtDQEhdKGMyW2NIXVtjSF1jKFtPSF0pW2NIXVtjSF0yKUMoPU8pW05IXVtDQEBIXTNDKD1PKU4oW0NASF0zNClDKEMoPU8pW09IXSk9QyhbQ0gyXVM0KVtDSDJdU2M1bm5ubjVbQ0gzXQ==

> <s_epik_cmdline>
J2VwaWtfcHl0aG9uJywgJy1waHQnLCAnMC4wJywgJy1waCcsICc3LjQnLCAnLW50JywgJy1tYScsICc1MDAnLCAnLWltYWUnLCAnPGluZmlsZS5tYWU+JywgJy1vbWFlJywgJzxvdXRmaWxlLm1hZT4n

> <r_lp_tautomer_probability>
1

> <r_epik_Ionization_Penalty>
  0.0158

> <r_epik_Ionization_Penalty_Charging>
  0.0000

> <r_epik_Ionization_Penalty_Neutral>
  0.0158

> <r_epik_State_Penalty>
  0.0000

> <r_epik_Charging_Adjusted_Penalty>
8.23416745038905e-06

> <i_epik_Tot_Q>
-1

> <i_epik_Tot_abs_Q>
1

> <s_epik_Chemistry_Notes>
This compound contains an acetal/aminal-like group ( X-CH(R)-Y where X, Y are N, S, or O) that may be acid/base labile, releasing an aldehyde.

> <s_m_subgroup_title>
glide-dock_Nicaido_neutral_pv1

> <s_m_subgroupid>
glide-dock_Nicaido_neutral_pv1

> <b_m_subgroup_collapsed>
0

$$$$
SCE-796
                    3D
 Schrodinger Suite 2022-2.
 54 57  0  0  1  0            999 V2000
  -29.5675  -24.3495  -22.4140 O   0  0  0  0  0  0
  -29.5386  -23.3004  -21.8098 C   0  0  0  0  0  0
  -29.6994  -22.8781  -20.3427 C   0  0  2  0  0  0
  -29.4742  -21.4393  -20.8398 C   0  0  2  0  0  0
  -29.1719  -22.0054  -22.1476 N   0  0  0  0  0  0
  -28.5331  -21.3057  -23.1952 C   0  0  0  0  0  0
  -28.5191  -22.0444  -24.5741 C   0  0  0  0  0  0
  -29.5296  -22.6825  -24.9487 O   0  5  0  0  0  0
  -27.4580  -21.9496  -25.2134 O   0  0  0  0  0  0
  -27.9478  -20.0830  -23.0196 C   0  0  0  0  0  0
  -28.0322  -19.3441  -21.6852 C   0  0  0  0  0  0
  -28.0779  -20.4297  -20.2688 S   0  0  0  0  0  0
  -27.2500  -19.2681  -24.1328 C   0  0  0  0  0  0
  -25.7588  -19.3831  -24.1034 N   0  3  0  0  0  0
  -25.0352  -18.7507  -23.1410 C   0  0  0  0  0  0
  -23.6344  -18.8742  -23.0687 C   0  0  0  0  0  0
  -22.9576  -19.6425  -24.0386 C   0  0  0  0  0  0
  -23.7171  -20.2593  -25.0546 C   0  0  0  0  0  0
  -25.1184  -20.0933  -25.0709 C   0  0  0  0  0  0
  -21.4707  -19.8218  -23.9808 C   0  0  0  0  0  0
  -20.7690  -18.7496  -23.6134 N   0  0  0  0  0  0
  -20.9423  -20.8859  -24.2938 O   0  0  0  0  0  0
  -28.6643  -23.3057  -19.3763 N   0  0  0  0  0  0
  -27.3826  -23.6742  -19.5938 C   0  0  0  0  0  0
  -26.4618  -23.7353  -18.3586 C   0  0  2  0  0  0
  -25.4485  -22.5829  -18.2537 C   0  0  0  0  0  0
  -25.0092  -22.1927  -16.9689 C   0  0  0  0  0  0
  -24.0750  -21.1511  -16.8134 C   0  0  0  0  0  0
  -23.5752  -20.4756  -17.9414 C   0  0  0  0  0  0
  -24.0007  -20.8546  -19.2275 C   0  0  0  0  0  0
  -24.9246  -21.9057  -19.3844 C   0  0  0  0  0  0
  -25.7334  -25.0953  -18.4134 C   0  0  0  0  0  0
  -24.5598  -25.1495  -18.8492 O   0  5  0  0  0  0
  -26.3689  -26.0983  -18.0134 O   0  0  0  0  0  0
  -26.9405  -23.9496  -20.7147 O   0  0  0  0  0  0
  -30.7197  -23.0544  -20.0134 H   0  0  0  0  0  0
  -30.3946  -20.8524  -20.8645 H   0  0  0  0  0  0
  -27.1594  -18.7496  -21.4843 H   0  0  0  0  0  0
  -28.8957  -18.6781  -21.6796 H   0  0  0  0  0  0
  -27.5942  -19.5306  -25.1313 H   0  0  0  0  0  0
  -27.5072  -18.2240  -24.0526 H   0  0  0  0  0  0
  -25.5645  -18.1093  -22.4639 H   0  0  0  0  0  0
  -23.0961  -18.3639  -22.2826 H   0  0  0  0  0  0
  -23.2286  -20.8357  -25.8274 H   0  0  0  0  0  0
  -25.7257  -20.5033  -25.8606 H   0  0  0  0  0  0
  -21.2345  -17.8550  -23.4985 H   0  0  0  0  0  0
  -19.7647  -18.8131  -23.5511 H   0  0  0  0  0  0
  -28.9172  -23.1111  -18.4161 H   0  0  0  0  0  0
  -27.0891  -23.7158  -17.4672 H   0  0  0  0  0  0
  -25.3922  -22.6953  -16.0919 H   0  0  0  0  0  0
  -23.7463  -20.8679  -15.8244 H   0  0  0  0  0  0
  -22.8670  -19.6694  -17.8192 H   0  0  0  0  0  0
  -23.6180  -20.3404  -20.0965 H   0  0  0  0  0  0
  -25.2222  -22.1745  -20.3856 H   0  0  0  0  0  0
  1  2  2  0  0  0
  2  5  1  0  0  0
  2  3  1  0  0  0
  3  4  1  0  0  0
  3 23  1  0  0  0
  3 36  1  0  0  0
  4 12  1  0  0  0
  4  5  1  0  0  0
  4 37  1  0  0  0
  5  6  1  0  0  0
  6  7  1  0  0  0
  6 10  2  0  0  0
  7  8  1  0  0  0
  7  9  2  0  0  0
 10 11  1  0  0  0
 10 13  1  0  0  0
 11 12  1  0  0  0
 11 38  1  0  0  0
 11 39  1  0  0  0
 13 14  1  0  0  0
 13 40  1  0  0  0
 13 41  1  0  0  0
 14 19  1  0  0  0
 14 15  2  0  0  0
 15 16  1  0  0  0
 15 42  1  0  0  0
 16 17  2  0  0  0
 16 43  1  0  0  0
 17 18  1  0  0  0
 17 20  1  0  0  0
 18 19  2  0  0  0
 18 44  1  0  0  0
 19 45  1  0  0  0
 20 21  1  0  0  0
 20 22  2  0  0  0
 21 46  1  0  0  0
 21 47  1  0  0  0
 23 24  1  0  0  0
 23 48  1  0  0  0
 24 25  1  0  0  0
 24 35  2  0  0  0
 25 26  1  0  0  0
 25 32  1  0  0  0
 25 49  1  0  0  0
 26 31  1  0  0  0
 26 27  2  0  0  0
 27 28  1  0  0  0
 27 50  1  0  0  0
 28 29  2  0  0  0
 28 51  1  0  0  0
 29 30  1  0  0  0
 29 52  1  0  0  0
 30 31  2  0  0  0
 30 53  1  0  0  0
 31 54  1  0  0  0
 32 33  1  0  0  0
 32 34  2  0  0  0
M  CHG  3   8  -1  14   1  33  -1
M  END
> <s_m_entry_id>
27234

> <s_m_entry_name>
data_maestro.28

> <s_m_Source_Path>
C:\Users\olshana1\Git\GramNeg-Accumulation\Gram Negative Permeation - OmpF

> <s_m_Source_File>
data_maestro.csv

> <i_m_Source_File_Index>
28

> <s_m_job_name>
glide-dock_Nicaido_neutral

> <s_i_glide_gridfile>
3POX-grid

> <i_i_glide_lignum>
35

> <i_i_glide_rotatable_bonds>
9

> <r_i_docking_score>
-6.43598162490245

> <r_i_glide_ligand_efficiency>
-0.183885189282927

> <r_i_glide_ligand_efficiency_sa>
-0.601500646893187

> <r_i_glide_ligand_efficiency_ln>
-1.41284080558229

> <r_i_glide_gscore>
-6.43598162490245

> <r_i_glide_lipo>
0

> <r_i_glide_hbond>
-1.3237725446295

> <r_i_glide_metal>
0

> <r_i_glide_rewards>
-0.012929094778973

> <r_i_glide_evdw>
-25.7197914123535

> <r_i_glide_ecoul>
-23.2673454284668

> <r_i_glide_erotb>
0.415177540389138

> <r_i_glide_esite>
-0.738366140995421

> <r_i_glide_emodel>
-87.5836444828178

> <r_i_glide_energy>
-48.9871368408203

> <r_i_glide_einternal>
9.80860424041748

> <i_i_glide_confnum>
5

> <i_i_glide_posenum>
179

> <r_i_glide_eff_state_penalty>
0

> <r_glide_res:A132_vdw>
-2.00322323221047

> <r_glide_res:A132_coul>
-55.2258647139202

> <r_glide_res:A132_hbond>
-0.258904377546051

> <r_glide_res:A132_dist>
2.03915639021925

> <r_glide_res:A132_Eint>
-57.4879923236767

> <r_glide_res:A117_vdw>
-1.71044422780733

> <r_glide_res:A117_coul>
-10.351993566805

> <r_glide_res:A117_hbond>
0

> <r_glide_res:A117_dist>
2.11065056394608

> <r_glide_res:A117_Eint>
-12.0624377946123

> <r_glide_res:A113_vdw>
-1.05332287914358

> <r_glide_res:A113_coul>
12.8592070378642

> <r_glide_res:A113_hbond>
0

> <r_glide_res:A113_dist>
2.207885837408

> <r_glide_res:A113_Eint>
11.8058841587206

> <r_glide_res:A82_vdw>
-0.759348570652662

> <r_glide_res:A82_coul>
-48.6656222751139

> <r_glide_res:A82_hbond>
-0.16

> <r_glide_res:A82_dist>
1.73685373706964

> <r_glide_res:A82_Eint>
-49.5849708457666

> <r_glide_res:A42_vdw>
3.99826498404367

> <r_glide_res:A42_coul>
-49.8346958578331

> <r_glide_res:A42_hbond>
-0.370625288481253

> <r_glide_res:A42_dist>
1.54125057696251

> <r_glide_res:A42_Eint>
-46.2070561622707

> <r_glide_res:A16_vdw>
-0.491322426135442

> <r_glide_res:A16_coul>
-23.8614268966649

> <r_glide_res:A16_hbond>
0

> <r_glide_res:A16_dist>
3.59891661483077

> <r_glide_res:A16_Eint>
-24.3527493228003

> <s_m_source_file>
ligprep_Nicaido_neutral.maegz

> <i_m_source_file_index>
28

> <i_lp_mmshare_version>
58128

> <i_f3d_flags>
0

> <s_lp_Force_Field>
S-OPLS

> <r_lp_Energy>
64.89814

> <b_lp_Chiralities_Consistent>
1

> <s_lp_Variant>
SCE-796-1

> <s_epik_input>
W2NIXTFbY0hdW2NIXVtjSF1bY0hdYzFbQ0BIXShDKD1PKVtPSF0pQyg9TylbTkhdW0NAQEhdMkMoPU8pTihbQ0BASF0yMylDKEMoPU8pW09IXSk9QyhbQ0gyXVMzKVtDSDJdW24rXTRbY0hdW2NIXWMoW2NIXVtjSF00KUMoPU8pW05IMl0=

> <s_epik_cmdline>
J2VwaWtfcHl0aG9uJywgJy1waHQnLCAnMC4wJywgJy1waCcsICc3LjQnLCAnLW50JywgJy1tYScsICc1MDAnLCAnLWltYWUnLCAnPGluZmlsZS5tYWU+JywgJy1vbWFlJywgJzxvdXRmaWxlLm1hZT4n

> <r_lp_tautomer_probability>
1

> <r_epik_Ionization_Penalty>
  0.0010

> <r_epik_Ionization_Penalty_Charging>
  0.0001

> <r_epik_Ionization_Penalty_Neutral>
  0.0010

> <r_epik_State_Penalty>
  0.0000

> <r_epik_Charging_Adjusted_Penalty>
5.79311335039239e-05

> <i_epik_Tot_Q>
-1

> <i_epik_Tot_abs_Q>
3

> <s_epik_Chemistry_Notes>
This compound contains an acetal/aminal-like group ( X-CH(R)-Y where X, Y are N, S, or O) that may be acid/base labile, releasing an aldehyde.

> <s_m_subgroup_title>
glide-dock_Nicaido_neutral_pv1

> <s_m_subgroupid>
glide-dock_Nicaido_neutral_pv1

> <b_m_subgroup_collapsed>
0

$$$$
Imipenem
                    3D
 Schrodinger Suite 2022-2.
 37 38  0  0  1  0            999 V2000
  -22.3299  -19.0609  -26.9730 C   0  0  0  0  0  0
  -22.0061  -20.5553  -26.8980 C   0  0  2  0  0  0
  -21.9161  -21.0796  -25.4638 C   0  0  1  0  0  0
  -23.1202  -20.8903  -24.5274 C   0  0  2  0  0  0
  -23.0413  -20.5983  -23.0249 C   0  0  0  0  0  0
  -23.7048  -21.8177  -22.4388 C   0  0  0  0  0  0
  -24.1791  -21.8731  -20.7321 S   0  0  0  0  0  0
  -25.1315  -20.3469  -20.5037 C   0  0  0  0  0  0
  -26.2588  -20.2373  -21.5392 C   0  0  0  0  0  0
  -27.1839  -19.1496  -21.2150 N   0  3  0  0  0  0
  -28.3175  -19.2522  -20.5099 C   0  0  0  0  0  0
  -28.7689  -20.4088  -20.0134 N   0  0  0  0  0  0
  -23.8232  -22.7893  -23.3518 C   0  0  0  0  0  0
  -23.3001  -22.3338  -24.5552 N   0  0  0  0  0  0
  -22.1860  -22.6059  -25.3266 C   0  0  0  0  0  0
  -21.6244  -23.6423  -25.6134 O   0  0  0  0  0  0
  -24.3689  -24.2380  -23.1740 C   0  0  0  0  0  0
  -23.8246  -25.1496  -23.8422 O   0  5  0  0  0  0
  -25.3584  -24.3496  -22.4134 O   0  0  0  0  0  0
  -20.7689  -20.7496  -27.5404 O   0  0  0  0  0  0
  -23.3038  -18.8261  -26.5432 H   0  0  0  0  0  0
  -22.3540  -18.7496  -28.0134 H   0  0  0  0  0  0
  -21.5822  -18.4578  -26.4570 H   0  0  0  0  0  0
  -22.7636  -21.1025  -27.4622 H   0  0  0  0  0  0
  -21.0056  -20.7530  -24.9595 H   0  0  0  0  0  0
  -23.9813  -20.4267  -25.0123 H   0  0  0  0  0  0
  -22.0112  -20.5368  -22.6725 H   0  0  0  0  0  0
  -23.5504  -19.6709  -22.7660 H   0  0  0  0  0  0
  -25.5385  -20.3431  -19.4918 H   0  0  0  0  0  0
  -24.4606  -19.4906  -20.5763 H   0  0  0  0  0  0
  -25.8504  -20.0501  -22.5320 H   0  0  0  0  0  0
  -26.8105  -21.1747  -21.6048 H   0  0  0  0  0  0
  -28.9031  -18.3542  -20.3391 H   0  0  0  0  0  0
  -28.2566  -21.2731  -20.0532 H   0  0  0  0  0  0
  -29.6605  -20.3496  -19.4628 H   0  0  0  0  0  0
  -20.6220  -21.6864  -27.6134 H   0  0  0  0  0  0
  -26.9931  -18.2384  -21.6354 H   0  0  0  0  0  0
  1  2  1  0  0  0
  1 21  1  0  0  0
  1 22  1  0  0  0
  1 23  1  0  0  0
  2  3  1  0  0  0
  2 20  1  0  0  0
  2 24  1  0  0  0
  3 15  1  0  0  0
  3  4  1  0  0  0
  3 25  1  0  0  0
  4 14  1  0  0  0
  4  5  1  0  0  0
  4 26  1  0  0  0
  5  6  1  0  0  0
  5 27  1  0  0  0
  5 28  1  0  0  0
  6  7  1  0  0  0
  6 13  2  0  0  0
  7  8  1  0  0  0
  8  9  1  0  0  0
  8 29  1  0  0  0
  8 30  1  0  0  0
  9 10  1  0  0  0
  9 31  1  0  0  0
  9 32  1  0  0  0
 10 11  2  3  0  0
 10 37  1  0  0  0
 11 12  1  0  0  0
 11 33  1  0  0  0
 12 34  1  0  0  0
 12 35  1  0  0  0
 13 14  1  0  0  0
 13 17  1  0  0  0
 14 15  1  0  0  0
 15 16  2  0  0  0
 17 18  1  0  0  0
 17 19  2  0  0  0
 20 36  1  0  0  0
M  CHG  2  10   1  18  -1
M  END
> <s_m_entry_id>
27235

> <s_m_entry_name>
data_maestro.12

> <s_m_Source_Path>
C:\Users\olshana1\Git\GramNeg-Accumulation\Gram Negative Permeation - OmpF

> <s_m_Source_File>
data_maestro.csv

> <i_m_Source_File_Index>
12

> <s_m_job_name>
glide-dock_Nicaido_neutral

> <s_i_glide_gridfile>
3POX-grid

> <i_i_glide_lignum>
17

> <i_i_glide_rotatable_bonds>
7

> <r_i_docking_score>
-6.39966549069341

> <r_i_glide_ligand_efficiency>
-0.319983274534671

> <r_i_glide_ligand_efficiency_sa>
-0.868568236545302

> <r_i_glide_ligand_efficiency_ln>
-1.60162519722605

> <r_i_glide_gscore>
-6.39966549069341

> <r_i_glide_lipo>
-0.206933071583586

> <r_i_glide_hbond>
-0.744676903374569

> <r_i_glide_metal>
0

> <r_i_glide_rewards>
-1.80409760142472

> <r_i_glide_evdw>
-14.585277557373

> <r_i_glide_ecoul>
-23.6580944061279

> <r_i_glide_erotb>
1.02473259195513

> <r_i_glide_esite>
-0.390712467477822

> <r_i_glide_emodel>
-73.1819620619817

> <r_i_glide_energy>
-38.243371963501

> <r_i_glide_einternal>
4.22494649887085

> <i_i_glide_confnum>
162

> <i_i_glide_posenum>
60

> <r_i_glide_eff_state_penalty>
0

> <r_glide_res:A132_vdw>
0.379895432213081

> <r_glide_res:A132_coul>
-17.6657307415916

> <r_glide_res:A132_hbond>
-0.0770967705918226

> <r_glide_res:A132_dist>
2.12122717263277

> <r_glide_res:A132_Eint>
-17.3629320799703

> <r_glide_res:A117_vdw>
-0.579208740349346

> <r_glide_res:A117_coul>
-16.2201377966071

> <r_glide_res:A117_hbond>
0

> <r_glide_res:A117_dist>
1.7738617113668

> <r_glide_res:A117_Eint>
-16.7993465369565

> <r_glide_res:A113_vdw>
4.15354089314288

> <r_glide_res:A113_coul>
-33.5926573803161

> <r_glide_res:A113_hbond>
-0.170635469976295

> <r_glide_res:A113_dist>
1.54127093995259

> <r_glide_res:A113_Eint>
-29.6097519571495

> <r_glide_res:A82_vdw>
-1.01825572048822

> <r_glide_res:A82_coul>
-19.662854052735

> <r_glide_res:A82_hbond>
-0.026303051311917

> <r_glide_res:A82_dist>
2.38888601961825

> <r_glide_res:A82_Eint>
-20.7074128245352

> <r_glide_res:A42_vdw>
-1.21802537051727

> <r_glide_res:A42_coul>
-9.33999688682799

> <r_glide_res:A42_hbond>
0

> <r_glide_res:A42_dist>
3.60753642190574

> <r_glide_res:A42_Eint>
-10.5580222573453

> <r_glide_res:A16_vdw>
-0.0814762789310572

> <r_glide_res:A16_coul>
1.37460861797483

> <r_glide_res:A16_hbond>
0

> <r_glide_res:A16_dist>
7.07294634068924

> <r_glide_res:A16_Eint>
1.29313233904378

> <s_m_source_file>
ligprep_Nicaido_neutral.maegz

> <i_m_source_file_index>
12

> <i_lp_mmshare_version>
58128

> <i_f3d_flags>
0

> <s_lp_Force_Field>
S-OPLS

> <r_lp_Energy>
22.988374

> <b_lp_Chiralities_Consistent>
1

> <s_lp_Variant>
Imipenem-2

> <s_epik_input>
W0NIM11bQ0BASF0oW09IXSlbQ0BASF0xQyg9TylOKFtDQEhdMTIpQyhDKD1PKVtPSF0pPUMoW0NIMl0yKVNbQ0gyXVtDSDJdL049W0NIXS9bTkgyXQ==

> <s_epik_cmdline>
J2VwaWtfcHl0aG9uJywgJy1waHQnLCAnMC4wJywgJy1waCcsICc3LjQnLCAnLW50JywgJy1tYScsICc1MDAnLCAnLWltYWUnLCAnPGluZmlsZS5tYWU+JywgJy1vbWFlJywgJzxvdXRmaWxlLm1hZT4n

> <r_lp_tautomer_probability>
1

> <r_epik_Ionization_Penalty>
  0.0001

> <r_epik_Ionization_Penalty_Charging>
  0.0001

> <r_epik_Ionization_Penalty_Neutral>
  0.0000

> <r_epik_State_Penalty>
  0.0000

> <r_epik_Charging_Adjusted_Penalty>
9.5675940864495e-05

> <i_epik_Tot_Q>
0

> <i_epik_Tot_abs_Q>
2

> <s_epik_Chemistry_Notes>
This compound has an imine and may undergo hydrolysis.

> <s_m_subgroup_title>
glide-dock_Nicaido_neutral_pv1

> <s_m_subgroupid>
glide-dock_Nicaido_neutral_pv1

> <b_m_subgroup_collapsed>
0

$$$$
Ceftazidime
                    3D
 Schrodinger Suite 2022-2.
 58 61  0  0  1  0            999 V2000
  -33.7065  -24.3638  -25.8518 C   0  0  0  0  0  0
  -32.7551  -23.8364  -26.9550 C   0  0  0  0  0  0
  -32.0478  -25.0351  -27.6161 C   0  0  0  0  0  0
  -33.5660  -23.0861  -28.0471 C   0  0  0  0  0  0
  -33.1690  -21.9540  -28.4133 O   0  5  0  0  0  0
  -34.5564  -23.6767  -28.5289 O   0  0  0  0  0  0
  -31.6911  -23.0391  -26.4018 O   0  0  0  0  0  0
  -32.2119  -21.9977  -25.6033 N   0  0  0  0  0  0
  -31.3673  -21.3677  -24.8819 C   0  0  0  0  0  0
  -29.8471  -21.6140  -24.8269 C   0  0  0  0  0  0
  -29.1916  -20.9621  -23.8593 N   0  0  0  0  0  0
  -27.7596  -21.0605  -23.5833 C   0  0  1  0  0  0
  -27.4129  -20.3905  -22.2442 C   0  0  2  0  0  0
  -27.2090  -21.7186  -21.6944 N   0  0  0  0  0  0
  -26.9316  -21.9540  -20.3364 C   0  0  0  0  0  0
  -26.4107  -23.3855  -19.9870 C   0  0  0  0  0  0
  -25.2742  -23.4584  -19.4742 O   0  5  0  0  0  0
  -27.1565  -24.3433  -20.2857 O   0  0  0  0  0  0
  -27.1965  -21.0308  -19.3747 C   0  0  0  0  0  0
  -26.9775  -21.2801  -17.8830 C   0  0  0  0  0  0
  -25.5687  -21.0954  -17.4647 N   0  3  0  0  0  0
  -24.9598  -19.8957  -17.6537 C   0  0  0  0  0  0
  -23.6375  -19.6777  -17.2142 C   0  0  0  0  0  0
  -22.9531  -20.7183  -16.5566 C   0  0  0  0  0  0
  -23.6080  -21.9489  -16.3560 C   0  0  0  0  0  0
  -24.9277  -22.1095  -16.8253 C   0  0  0  0  0  0
  -27.8477  -19.6762  -19.6609 C   0  0  0  0  0  0
  -28.6677  -19.5496  -21.2534 S   0  0  0  0  0  0
  -27.3297  -22.3853  -22.8984 C   0  0  0  0  0  0
  -27.1675  -23.5463  -23.2137 O   0  0  0  0  0  0
  -29.2528  -22.3495  -25.6134 O   0  0  0  0  0  0
  -31.8869  -20.2396  -24.0565 C   0  0  0  0  0  0
  -32.7405  -19.3048  -24.6010 C   0  0  0  0  0  0
  -33.1683  -18.0572  -23.4609 S   0  0  0  0  0  0
  -32.1635  -18.8641  -22.2663 C   0  0  0  0  0  0
  -31.9695  -18.3495  -21.0007 N   0  0  0  0  0  0
  -31.6323  -20.0056  -22.6990 N   0  0  0  0  0  0
  -34.3918  -25.1154  -26.2453 H   0  0  0  0  0  0
  -33.1464  -24.8261  -25.0392 H   0  0  0  0  0  0
  -34.3200  -23.5696  -25.4241 H   0  0  0  0  0  0
  -32.7662  -25.7311  -28.0529 H   0  0  0  0  0  0
  -31.3739  -24.7218  -28.4117 H   0  0  0  0  0  0
  -31.4620  -25.5926  -26.8851 H   0  0  0  0  0  0
  -29.7341  -20.3983  -23.2105 H   0  0  0  0  0  0
  -27.1205  -20.7181  -24.3977 H   0  0  0  0  0  0
  -26.4809  -19.8222  -22.2745 H   0  0  0  0  0  0
  -27.5694  -20.5883  -17.2879 H   0  0  0  0  0  0
  -27.3082  -22.2812  -17.6047 H   0  0  0  0  0  0
  -25.5449  -19.1231  -18.1249 H   0  0  0  0  0  0
  -23.1658  -18.7156  -17.3590 H   0  0  0  0  0  0
  -21.9446  -20.5685  -16.1979 H   0  0  0  0  0  0
  -23.1124  -22.7554  -15.8373 H   0  0  0  0  0  0
  -25.4828  -23.0269  -16.6928 H   0  0  0  0  0  0
  -28.6249  -19.4880  -18.9216 H   0  0  0  0  0  0
  -27.1115  -18.8755  -19.6129 H   0  0  0  0  0  0
  -33.1284  -19.2644  -25.6086 H   0  0  0  0  0  0
  -31.3944  -18.8523  -20.3236 H   0  0  0  0  0  0
  -32.0374  -17.3511  -20.8705 H   0  0  0  0  0  0
  1  2  1  0  0  0
  1 38  1  0  0  0
  1 39  1  0  0  0
  1 40  1  0  0  0
  2  3  1  0  0  0
  2  4  1  0  0  0
  2  7  1  0  0  0
  3 41  1  0  0  0
  3 42  1  0  0  0
  3 43  1  0  0  0
  4  5  1  0  0  0
  4  6  2  0  0  0
  7  8  1  0  0  0
  8  9  2  3  0  0
  9 10  1  0  0  0
  9 32  1  0  0  0
 10 11  1  0  0  0
 10 31  2  0  0  0
 11 12  1  0  0  0
 11 44  1  0  0  0
 12 29  1  0  0  0
 12 13  1  0  0  0
 12 45  1  0  0  0
 13 28  1  0  0  0
 13 14  1  0  0  0
 13 46  1  0  0  0
 14 15  1  0  0  0
 14 29  1  0  0  0
 15 16  1  0  0  0
 15 19  2  0  0  0
 16 17  1  0  0  0
 16 18  2  0  0  0
 19 20  1  0  0  0
 19 27  1  0  0  0
 20 21  1  0  0  0
 20 47  1  0  0  0
 20 48  1  0  0  0
 21 26  1  0  0  0
 21 22  2  0  0  0
 22 23  1  0  0  0
 22 49  1  0  0  0
 23 24  2  0  0  0
 23 50  1  0  0  0
 24 25  1  0  0  0
 24 51  1  0  0  0
 25 26  2  0  0  0
 25 52  1  0  0  0
 26 53  1  0  0  0
 27 28  1  0  0  0
 27 54  1  0  0  0
 27 55  1  0  0  0
 29 30  2  0  0  0
 32 37  1  0  0  0
 32 33  2  0  0  0
 33 34  1  0  0  0
 33 56  1  0  0  0
 34 35  1  0  0  0
 35 36  1  0  0  0
 35 37  2  0  0  0
 36 57  1  0  0  0
 36 58  1  0  0  0
M  CHG  3   5  -1  17  -1  21   1
M  END
> <s_m_entry_id>
27236

> <s_m_entry_name>
data_maestro.30

> <s_m_Source_Path>
C:\Users\olshana1\Git\GramNeg-Accumulation\Gram Negative Permeation - OmpF

> <s_m_Source_File>
data_maestro.csv

> <i_m_Source_File_Index>
30

> <s_m_job_name>
glide-dock_Nicaido_neutral

> <s_i_glide_gridfile>
3POX-grid

> <i_i_glide_lignum>
39

> <i_i_glide_rotatable_bonds>
10

> <r_i_docking_score>
-6.38834786309273

> <r_i_glide_ligand_efficiency>
-0.172658050353858

> <r_i_glide_ligand_efficiency_sa>
-0.575334927559216

> <r_i_glide_ligand_efficiency_ln>
-1.38548288738222

> <r_i_glide_gscore>
-6.38834786309273

> <r_i_glide_lipo>
0

> <r_i_glide_hbond>
-1.03657654184879

> <r_i_glide_metal>
0

> <r_i_glide_rewards>
-0.22054275387852

> <r_i_glide_evdw>
-30.1763744354248

> <r_i_glide_ecoul>
-23.2405281066895

> <r_i_glide_erotb>
0.556495996469625

> <r_i_glide_esite>
-0.692826626060392

> <r_i_glide_emodel>
-95.7344213771234

> <r_i_glide_energy>
-53.4169025421143

> <r_i_glide_einternal>
7.56724071502686

> <i_i_glide_confnum>
155

> <i_i_glide_posenum>
271

> <r_i_glide_eff_state_penalty>
0

> <r_glide_res:A132_vdw>
3.05880260521455

> <r_glide_res:A132_coul>
-47.1542361655494

> <r_glide_res:A132_hbond>
-0.32550170592705

> <r_glide_res:A132_dist>
1.7420773995425

> <r_glide_res:A132_Eint>
-44.420935266262

> <r_glide_res:A117_vdw>
-2.73671922926259

> <r_glide_res:A117_coul>
13.4826943792681

> <r_glide_res:A117_hbond>
0

> <r_glide_res:A117_dist>
3.18349053594318

> <r_glide_res:A117_Eint>
10.7459751500055

> <r_glide_res:A113_vdw>
-3.72869405809735

> <r_glide_res:A113_coul>
12.1927506309957

> <r_glide_res:A113_hbond>
-0.16

> <r_glide_res:A113_dist>
2.02195119236587

> <r_glide_res:A113_Eint>
8.30405657289838

> <r_glide_res:A82_vdw>
-0.0126397159720359

> <r_glide_res:A82_coul>
-43.4723454198998

> <r_glide_res:A82_hbond>
-0.16

> <r_glide_res:A82_dist>
1.76890970705435

> <r_glide_res:A82_Eint>
-43.6449851358718

> <r_glide_res:A42_vdw>
-0.446743474939958

> <r_glide_res:A42_coul>
-44.3928244160377

> <r_glide_res:A42_hbond>
-0.16

> <r_glide_res:A42_dist>
1.69215456739846

> <r_glide_res:A42_Eint>
-44.9995678909777

> <r_glide_res:A16_vdw>
0.170937764296234

> <r_glide_res:A16_coul>
-60.5091487953685

> <r_glide_res:A16_hbond>
-0.2

> <r_glide_res:A16_dist>
1.69040290775643

> <r_glide_res:A16_Eint>
-60.5382110310723

> <s_m_source_file>
ligprep_Nicaido_neutral.maegz

> <i_m_source_file_index>
30

> <i_lp_mmshare_version>
58128

> <i_f3d_flags>
0

> <s_lp_Force_Field>
S-OPLS

> <r_lp_Energy>
82.572273

> <b_lp_Chiralities_Consistent>
1

> <s_lp_Variant>
Ceftazidime-2

> <s_epik_input>
W09IXUMoPU8pQyhbQ0gzXSkoW0NIM10pTy9OPUMoYzFbY0hdc2MobjEpW05IMl0pL0MoPU8pW05IXVtDQEBIXTJDKD1PKU4oW0NAQEhdMjMpQyhDKD1PKVtPSF0pPUMoW0NIMl1TMylbQ0gyXVtuK100W2NIXVtjSF1bY0hdW2NIXVtjSF00

> <s_epik_cmdline>
J2VwaWtfcHl0aG9uJywgJy1waHQnLCAnMC4wJywgJy1waCcsICc3LjQnLCAnLW50JywgJy1tYScsICc1MDAnLCAnLWltYWUnLCAnPGluZmlsZS5tYWU+JywgJy1vbWFlJywgJzxvdXRmaWxlLm1hZT4n

> <r_lp_tautomer_probability>
1

> <r_epik_Ionization_Penalty>
  0.0005

> <r_epik_Ionization_Penalty_Charging>
  0.0001

> <r_epik_Ionization_Penalty_Neutral>
  0.0005

> <r_epik_State_Penalty>
  0.0000

> <r_epik_Charging_Adjusted_Penalty>
5.84857251211915e-05

> <i_epik_Tot_Q>
-1

> <i_epik_Tot_abs_Q>
3

> <s_epik_Chemistry_Notes>
This compound has an imine and may undergo hydrolysis. This compound contains an acetal/aminal-like group ( X-CH(R)-Y where X, Y are N, S, or O) that may be acid/base labile, releasing an aldehyde.

> <s_m_subgroup_title>
glide-dock_Nicaido_neutral_pv1

> <s_m_subgroupid>
glide-dock_Nicaido_neutral_pv1

> <b_m_subgroup_collapsed>
0

$$$$
Ceftazidime
                    3D
 Schrodinger Suite 2022-2.
 58 61  0  0  1  0            999 V2000
  -19.5811  -23.7340  -16.5560 C   0  0  0  0  0  0
  -20.5433  -24.2102  -17.6729 C   0  0  0  0  0  0
  -20.1071  -23.6633  -19.0541 C   0  0  0  0  0  0
  -20.4861  -25.7567  -17.6764 C   0  0  0  0  0  0
  -21.1690  -26.3495  -16.8135 O   0  5  0  0  0  0
  -19.7194  -26.3495  -18.4746 O   0  0  0  0  0  0
  -21.9006  -23.8016  -17.4130 O   0  0  0  0  0  0
  -21.9625  -22.4092  -17.1899 N   0  0  0  0  0  0
  -23.0752  -21.8267  -17.4481 C   0  0  0  0  0  0
  -24.3632  -22.5318  -17.9472 C   0  0  0  0  0  0
  -25.2847  -21.7183  -18.4955 N   0  0  0  0  0  0
  -26.5328  -22.0990  -19.1527 C   0  0  1  0  0  0
  -27.1135  -20.9769  -20.0508 C   0  0  2  0  0  0
  -26.6326  -21.7403  -21.1934 N   0  0  0  0  0  0
  -26.6446  -21.2749  -22.5193 C   0  0  0  0  0  0
  -27.1784  -22.3078  -23.6134 C   0  0  0  0  0  0
  -27.1681  -21.9500  -24.8134 O   0  5  0  0  0  0
  -27.5463  -23.4413  -23.2150 O   0  0  0  0  0  0
  -26.1251  -20.0341  -22.7456 C   0  0  0  0  0  0
  -25.9471  -19.3493  -24.1072 C   0  0  0  0  0  0
  -24.6273  -19.6719  -24.7037 N   0  3  0  0  0  0
  -24.5700  -20.4491  -25.8166 C   0  0  0  0  0  0
  -23.3330  -20.7773  -26.4106 C   0  0  0  0  0  0
  -22.1450  -20.2798  -25.8424 C   0  0  0  0  0  0
  -22.2255  -19.4627  -24.6984 C   0  0  0  0  0  0
  -23.4907  -19.1706  -24.1477 C   0  0  0  0  0  0
  -25.5033  -19.2423  -21.5935 C   0  0  0  0  0  0
  -26.4807  -19.2603  -20.0759 S   0  0  0  0  0  0
  -26.3023  -22.8623  -20.4728 C   0  0  0  0  0  0
  -25.9001  -23.9496  -20.8133 O   0  0  0  0  0  0
  -24.5271  -23.7522  -17.8860 O   0  0  0  0  0  0
  -23.1004  -20.3218  -17.2986 C   0  0  0  0  0  0
  -21.9608  -19.6192  -16.9528 C   0  0  0  0  0  0
  -22.2036  -17.8894  -16.9262 S   0  0  0  0  0  0
  -23.8704  -18.1665  -17.3784 C   0  0  0  0  0  0
  -24.7689  -17.1495  -17.6137 N   0  0  0  0  0  0
  -24.1812  -19.4494  -17.4937 N   0  0  0  0  0  0
  -18.5933  -24.1846  -16.6614 H   0  0  0  0  0  0
  -19.4340  -22.6537  -16.5756 H   0  0  0  0  0  0
  -19.9658  -23.9947  -15.5702 H   0  0  0  0  0  0
  -19.0944  -23.9752  -19.3112 H   0  0  0  0  0  0
  -20.7750  -24.0144  -19.8412 H   0  0  0  0  0  0
  -20.1158  -22.5737  -19.0804 H   0  0  0  0  0  0
  -25.0989  -20.7204  -18.4459 H   0  0  0  0  0  0
  -27.2772  -22.5296  -18.4818 H   0  0  0  0  0  0
  -28.2062  -20.9686  -20.0371 H   0  0  0  0  0  0
  -26.7361  -19.5972  -24.8139 H   0  0  0  0  0  0
  -25.9920  -18.2665  -24.0104 H   0  0  0  0  0  0
  -25.5118  -20.7793  -26.2269 H   0  0  0  0  0  0
  -23.2965  -21.3854  -27.3037 H   0  0  0  0  0  0
  -21.1869  -20.5056  -26.2890 H   0  0  0  0  0  0
  -21.3331  -19.0393  -24.2592 H   0  0  0  0  0  0
  -23.6120  -18.5141  -23.3007 H   0  0  0  0  0  0
  -24.5191  -19.6566  -21.3746 H   0  0  0  0  0  0
  -25.3597  -18.1949  -21.8572 H   0  0  0  0  0  0
  -20.9788  -20.0104  -16.7312 H   0  0  0  0  0  0
  -25.7557  -17.3914  -17.6131 H   0  0  0  0  0  0
  -24.5447  -16.2197  -17.2786 H   0  0  0  0  0  0
  1  2  1  0  0  0
  1 38  1  0  0  0
  1 39  1  0  0  0
  1 40  1  0  0  0
  2  3  1  0  0  0
  2  4  1  0  0  0
  2  7  1  0  0  0
  3 41  1  0  0  0
  3 42  1  0  0  0
  3 43  1  0  0  0
  4  5  1  0  0  0
  4  6  2  0  0  0
  7  8  1  0  0  0
  8  9  2  3  0  0
  9 10  1  0  0  0
  9 32  1  0  0  0
 10 11  1  0  0  0
 10 31  2  0  0  0
 11 12  1  0  0  0
 11 44  1  0  0  0
 12 29  1  0  0  0
 12 13  1  0  0  0
 12 45  1  0  0  0
 13 28  1  0  0  0
 13 14  1  0  0  0
 13 46  1  0  0  0
 14 15  1  0  0  0
 14 29  1  0  0  0
 15 16  1  0  0  0
 15 19  2  0  0  0
 16 17  1  0  0  0
 16 18  2  0  0  0
 19 20  1  0  0  0
 19 27  1  0  0  0
 20 21  1  0  0  0
 20 47  1  0  0  0
 20 48  1  0  0  0
 21 26  1  0  0  0
 21 22  2  0  0  0
 22 23  1  0  0  0
 22 49  1  0  0  0
 23 24  2  0  0  0
 23 50  1  0  0  0
 24 25  1  0  0  0
 24 51  1  0  0  0
 25 26  2  0  0  0
 25 52  1  0  0  0
 26 53  1  0  0  0
 27 28  1  0  0  0
 27 54  1  0  0  0
 27 55  1  0  0  0
 29 30  2  0  0  0
 32 37  1  0  0  0
 32 33  2  0  0  0
 33 34  1  0  0  0
 33 56  1  0  0  0
 34 35  1  0  0  0
 35 36  1  0  0  0
 35 37  2  0  0  0
 36 57  1  0  0  0
 36 58  1  0  0  0
M  CHG  3   5  -1  17  -1  21   1
M  END
> <s_m_entry_id>
27237

> <s_m_entry_name>
data_maestro.30

> <s_m_Source_Path>
C:\Users\olshana1\Git\GramNeg-Accumulation\Gram Negative Permeation - OmpF

> <s_m_Source_File>
data_maestro.csv

> <i_m_Source_File_Index>
30

> <s_m_job_name>
glide-dock_Nicaido_neutral

> <s_i_glide_gridfile>
3POX-grid

> <i_i_glide_lignum>
39

> <i_i_glide_rotatable_bonds>
10

> <r_i_docking_score>
-6.37078130164106

> <r_i_glide_ligand_efficiency>
-0.172183278422731

> <r_i_glide_ligand_efficiency_sa>
-0.573752882157673

> <r_i_glide_ligand_efficiency_ln>
-1.38167311202198

> <r_i_glide_gscore>
-6.37078130164106

> <r_i_glide_lipo>
-0.0114115617098272

> <r_i_glide_hbond>
-1.59011575763236

> <r_i_glide_metal>
0

> <r_i_glide_rewards>
0.105565116074138

> <r_i_glide_evdw>
-35.3280296325684

> <r_i_glide_ecoul>
-20.9689350128174

> <r_i_glide_erotb>
0.556495996469625

> <r_i_glide_esite>
-0.519573361291615

> <r_i_glide_emodel>
-99.4866172934226

> <r_i_glide_energy>
-56.2969646453857

> <r_i_glide_einternal>
4.99160766601563

> <i_i_glide_confnum>
196

> <i_i_glide_posenum>
331

> <r_i_glide_eff_state_penalty>
0

> <r_glide_res:A132_vdw>
-0.522753479777116

> <r_glide_res:A132_coul>
-41.6246005437834

> <r_glide_res:A132_hbond>
-0.152

> <r_glide_res:A132_dist>
1.77679345783538

> <r_glide_res:A132_Eint>
-42.2993540235605

> <r_glide_res:A117_vdw>
-3.21120075465555

> <r_glide_res:A117_coul>
-11.303342020535

> <r_glide_res:A117_hbond>
0

> <r_glide_res:A117_dist>
2.39912126928722

> <r_glide_res:A117_Eint>
-14.5145427751905

> <r_glide_res:A113_vdw>
-1.30864577520902

> <r_glide_res:A113_coul>
15.5021888429835

> <r_glide_res:A113_hbond>
0

> <r_glide_res:A113_dist>
3.20622903652931

> <r_glide_res:A113_Eint>
14.1935430677744

> <r_glide_res:A82_vdw>
-0.48372647701142

> <r_glide_res:A82_coul>
-39.9121801918629

> <r_glide_res:A82_hbond>
-0.2

> <r_glide_res:A82_dist>
1.90397698362141

> <r_glide_res:A82_Eint>
-40.5959066688744

> <r_glide_res:A42_vdw>
0.103013574058829

> <r_glide_res:A42_coul>
-31.182094299735

> <r_glide_res:A42_hbond>
-0.2

> <r_glide_res:A42_dist>
1.73634006083139

> <r_glide_res:A42_Eint>
-31.2790807256762

> <r_glide_res:A16_vdw>
-0.196759688535627

> <r_glide_res:A16_coul>
-13.9782309797184

> <r_glide_res:A16_hbond>
0

> <r_glide_res:A16_dist>
4.61698845212647

> <r_glide_res:A16_Eint>
-14.174990668254

> <s_m_source_file>
ligprep_Nicaido_neutral.maegz

> <i_m_source_file_index>
30

> <i_lp_mmshare_version>
58128

> <i_f3d_flags>
0

> <s_lp_Force_Field>
S-OPLS

> <r_lp_Energy>
82.572273

> <b_lp_Chiralities_Consistent>
1

> <s_lp_Variant>
Ceftazidime-2

> <s_epik_input>
W09IXUMoPU8pQyhbQ0gzXSkoW0NIM10pTy9OPUMoYzFbY0hdc2MobjEpW05IMl0pL0MoPU8pW05IXVtDQEBIXTJDKD1PKU4oW0NAQEhdMjMpQyhDKD1PKVtPSF0pPUMoW0NIMl1TMylbQ0gyXVtuK100W2NIXVtjSF1bY0hdW2NIXVtjSF00

> <s_epik_cmdline>
J2VwaWtfcHl0aG9uJywgJy1waHQnLCAnMC4wJywgJy1waCcsICc3LjQnLCAnLW50JywgJy1tYScsICc1MDAnLCAnLWltYWUnLCAnPGluZmlsZS5tYWU+JywgJy1vbWFlJywgJzxvdXRmaWxlLm1hZT4n

> <r_lp_tautomer_probability>
1

> <r_epik_Ionization_Penalty>
  0.0005

> <r_epik_Ionization_Penalty_Charging>
  0.0001

> <r_epik_Ionization_Penalty_Neutral>
  0.0005

> <r_epik_State_Penalty>
  0.0000

> <r_epik_Charging_Adjusted_Penalty>
5.84857251211915e-05

> <i_epik_Tot_Q>
-1

> <i_epik_Tot_abs_Q>
3

> <s_epik_Chemistry_Notes>
This compound has an imine and may undergo hydrolysis. This compound contains an acetal/aminal-like group ( X-CH(R)-Y where X, Y are N, S, or O) that may be acid/base labile, releasing an aldehyde.

> <s_m_subgroup_title>
glide-dock_Nicaido_neutral_pv1

> <s_m_subgroupid>
glide-dock_Nicaido_neutral_pv1

> <b_m_subgroup_collapsed>
0

$$$$
Cefoperazone
                    3D
 Schrodinger Suite 2022-2.
 70 74  0  0  1  0            999 V2000
  -20.2472  -17.3163  -20.0655 C   0  0  0  0  0  0
  -21.5958  -16.6132  -19.8455 C   0  0  0  0  0  0
  -22.5521  -17.4666  -19.1294 N   0  0  0  0  0  0
  -23.6520  -18.0176  -19.9301 C   0  0  0  0  0  0
  -24.8004  -18.4985  -19.0306 C   0  0  0  0  0  0
  -24.2821  -19.4126  -17.9856 N   0  0  0  0  0  0
  -23.2169  -18.9613  -17.2465 C   0  0  0  0  0  0
  -22.3962  -17.7517  -17.8141 C   0  0  0  0  0  0
  -21.5745  -17.1863  -17.0925 O   0  0  0  0  0  0
  -22.7690  -19.4956  -16.2262 O   0  0  0  0  0  0
  -24.8834  -20.6158  -17.7358 C   0  0  0  0  0  0
  -25.4942  -21.1697  -18.8035 N   0  0  0  0  0  0
  -25.9580  -22.5604  -18.8584 C   0  0  2  0  0  0
  -25.0030  -23.3262  -19.7260 C   0  0  0  0  0  0
  -24.2059  -24.3525  -19.1680 C   0  0  0  0  0  0
  -23.2952  -25.0873  -19.9506 C   0  0  0  0  0  0
  -23.1680  -24.8165  -21.3270 C   0  0  0  0  0  0
  -23.9394  -23.7915  -21.9033 C   0  0  0  0  0  0
  -24.8372  -23.0511  -21.1087 C   0  0  0  0  0  0
  -22.3084  -25.5486  -22.0959 O   0  0  0  0  0  0
  -27.3584  -22.7973  -19.4637 C   0  0  0  0  0  0
  -28.0577  -21.7656  -19.9700 N   0  0  0  0  0  0
  -29.2841  -21.9627  -20.7542 C   0  0  1  0  0  0
  -29.7161  -20.7282  -21.5816 C   0  0  1  0  0  0
  -29.5261  -21.5339  -22.7738 N   0  0  0  0  0  0
  -29.0098  -22.6413  -22.1222 C   0  0  0  0  0  0
  -28.5784  -23.7086  -22.5190 O   0  0  0  0  0  0
  -29.8826  -21.1138  -24.0713 C   0  0  0  0  0  0
  -29.2203  -21.9494  -25.2135 C   0  0  0  0  0  0
  -29.9694  -22.3495  -26.1298 O   0  5  0  0  0  0
  -27.9946  -22.1919  -25.1261 O   0  0  0  0  0  0
  -30.7279  -20.0656  -24.2972 C   0  0  0  0  0  0
  -31.3320  -19.2330  -23.1726 C   0  0  0  0  0  0
  -31.4365  -20.1339  -21.6163 S   0  0  0  0  0  0
  -31.1952  -19.5864  -25.6726 C   0  0  0  0  0  0
  -30.5780  -17.9485  -26.1185 S   0  0  0  0  0  0
  -31.7055  -17.6150  -27.4336 C   0  0  0  0  0  0
  -31.8218  -18.3495  -28.5342 N   0  0  0  0  0  0
  -32.8504  -17.7507  -29.2301 N   0  0  0  0  0  0
  -33.3069  -16.7104  -28.5992 N   0  0  0  0  0  0
  -32.5959  -16.6148  -27.4494 N   0  0  0  0  0  0
  -32.8890  -15.5667  -26.5012 C   0  0  0  0  0  0
  -27.7787  -23.9539  -19.5316 O   0  0  0  0  0  0
  -24.7691  -21.2520  -16.6880 O   0  0  0  0  0  0
  -19.5855  -16.7049  -20.6787 H   0  0  0  0  0  0
  -20.3815  -18.2680  -20.5836 H   0  0  0  0  0  0
  -19.7355  -17.5145  -19.1230 H   0  0  0  0  0  0
  -21.4543  -15.6733  -19.3085 H   0  0  0  0  0  0
  -21.9915  -16.3494  -20.8208 H   0  0  0  0  0  0
  -24.0336  -17.2734  -20.6310 H   0  0  0  0  0  0
  -23.2735  -18.8460  -20.5290 H   0  0  0  0  0  0
  -25.2517  -17.6386  -18.5309 H   0  0  0  0  0  0
  -25.6007  -18.8995  -19.6505 H   0  0  0  0  0  0
  -25.5244  -20.6374  -19.6586 H   0  0  0  0  0  0
  -26.0028  -22.9978  -17.8584 H   0  0  0  0  0  0
  -24.2929  -24.5744  -18.1148 H   0  0  0  0  0  0
  -22.7041  -25.8626  -19.4872 H   0  0  0  0  0  0
  -23.8413  -23.5619  -22.9538 H   0  0  0  0  0  0
  -25.4146  -22.2633  -21.5709 H   0  0  0  0  0  0
  -21.7286  -26.0754  -21.5668 H   0  0  0  0  0  0
  -27.7303  -20.8212  -19.8326 H   0  0  0  0  0  0
  -30.1066  -22.4010  -20.1887 H   0  0  0  0  0  0
  -29.0101  -19.8972  -21.5433 H   0  0  0  0  0  0
  -30.7313  -18.3329  -23.0320 H   0  0  0  0  0  0
  -32.3399  -18.9108  -23.4343 H   0  0  0  0  0  0
  -30.9320  -20.2499  -26.4853 H   0  0  0  0  0  0
  -32.2857  -19.5612  -25.6631 H   0  0  0  0  0  0
  -32.5609  -15.8704  -25.5061 H   0  0  0  0  0  0
  -32.3737  -14.6571  -26.8131 H   0  0  0  0  0  0
  -33.9633  -15.3764  -26.4719 H   0  0  0  0  0  0
  1  2  1  0  0  0
  1 45  1  0  0  0
  1 46  1  0  0  0
  1 47  1  0  0  0
  2  3  1  0  0  0
  2 48  1  0  0  0
  2 49  1  0  0  0
  3  8  1  0  0  0
  3  4  1  0  0  0
  4  5  1  0  0  0
  4 50  1  0  0  0
  4 51  1  0  0  0
  5  6  1  0  0  0
  5 52  1  0  0  0
  5 53  1  0  0  0
  6  7  1  0  0  0
  6 11  1  0  0  0
  7  8  1  0  0  0
  7 10  2  0  0  0
  8  9  2  0  0  0
 11 12  1  0  0  0
 11 44  2  0  0  0
 12 13  1  0  0  0
 12 54  1  0  0  0
 13 14  1  0  0  0
 13 21  1  0  0  0
 13 55  1  0  0  0
 14 19  1  0  0  0
 14 15  2  0  0  0
 15 16  1  0  0  0
 15 56  1  0  0  0
 16 17  2  0  0  0
 16 57  1  0  0  0
 17 18  1  0  0  0
 17 20  1  0  0  0
 18 19  2  0  0  0
 18 58  1  0  0  0
 19 59  1  0  0  0
 20 60  1  0  0  0
 21 22  1  0  0  0
 21 43  2  0  0  0
 22 23  1  0  0  0
 22 61  1  0  0  0
 23 26  1  0  0  0
 23 24  1  0  0  0
 23 62  1  0  0  0
 24 34  1  0  0  0
 24 25  1  0  0  0
 24 63  1  0  0  0
 25 26  1  0  0  0
 25 28  1  0  0  0
 26 27  2  0  0  0
 28 29  1  0  0  0
 28 32  2  0  0  0
 29 30  1  0  0  0
 29 31  2  0  0  0
 32 33  1  0  0  0
 32 35  1  0  0  0
 33 34  1  0  0  0
 33 64  1  0  0  0
 33 65  1  0  0  0
 35 36  1  0  0  0
 35 66  1  0  0  0
 35 67  1  0  0  0
 36 37  1  0  0  0
 37 41  1  0  0  0
 37 38  2  0  0  0
 38 39  1  0  0  0
 39 40  2  0  0  0
 40 41  1  0  0  0
 41 42  1  0  0  0
 42 68  1  0  0  0
 42 69  1  0  0  0
 42 70  1  0  0  0
M  CHG  1  30  -1
M  END
> <s_m_entry_id>
27238

> <s_m_entry_name>
data_maestro.8

> <s_m_Source_Path>
C:\Users\olshana1\Git\GramNeg-Accumulation\Gram Negative Permeation - OmpF

> <s_m_Source_File>
data_maestro.csv

> <i_m_Source_File_Index>
8

> <s_m_job_name>
glide-dock_Nicaido_neutral

> <s_i_glide_gridfile>
3POX-grid

> <i_i_glide_lignum>
11

> <i_i_glide_rotatable_bonds>
13

> <r_i_docking_score>
-6.32845262452157

> <r_i_glide_ligand_efficiency>
-0.143828468739127

> <r_i_glide_ligand_efficiency_sa>
-0.50776459454518

> <r_i_glide_ligand_efficiency_ln>
-1.32278465294415

> <r_i_glide_gscore>
-6.32845262452157

> <r_i_glide_lipo>
-0.394183110434225

> <r_i_glide_hbond>
-0.802078717298865

> <r_i_glide_metal>
0

> <r_i_glide_rewards>
-0.100814639996191

> <r_i_glide_evdw>
-48.1570816040039

> <r_i_glide_ecoul>
-14.8018131256104

> <r_i_glide_erotb>
0.362700252817045

> <r_i_glide_esite>
-0.765950360567587

> <r_i_glide_emodel>
-93.0222438117155

> <r_i_glide_energy>
-62.9588947296143

> <r_i_glide_einternal>
18.0149555206299

> <i_i_glide_confnum>
319

> <i_i_glide_posenum>
181

> <r_i_glide_eff_state_penalty>
0

> <r_glide_res:A132_vdw>
-2.76755450262849

> <r_glide_res:A132_coul>
-34.4590143933459

> <r_glide_res:A132_hbond>
-0.16

> <r_glide_res:A132_dist>
2.04474423849761

> <r_glide_res:A132_Eint>
-37.3865688959744

> <r_glide_res:A117_vdw>
-3.29257264843283

> <r_glide_res:A117_coul>
19.4111866180805

> <r_glide_res:A117_hbond>
0

> <r_glide_res:A117_dist>
3.41776732539222

> <r_glide_res:A117_Eint>
16.1186139696477

> <r_glide_res:A113_vdw>
-2.68095691219653

> <r_glide_res:A113_coul>
15.7535421694964

> <r_glide_res:A113_hbond>
0

> <r_glide_res:A113_dist>
2.37291634865046

> <r_glide_res:A113_Eint>
13.0725852572998

> <r_glide_res:A82_vdw>
-2.29710818261678

> <r_glide_res:A82_coul>
-40.798665297745

> <r_glide_res:A82_hbond>
-0.093637099739885

> <r_glide_res:A82_dist>
2.36798908863494

> <r_glide_res:A82_Eint>
-43.1894105801017

> <r_glide_res:A42_vdw>
4.17339100405419

> <r_glide_res:A42_coul>
-56.6310377378886

> <r_glide_res:A42_hbond>
-0.445985786236988

> <r_glide_res:A42_dist>
1.73943189847148

> <r_glide_res:A42_Eint>
-52.9036325200714

> <r_glide_res:A16_vdw>
-1.05247957751146

> <r_glide_res:A16_coul>
-44.3187319072715

> <r_glide_res:A16_hbond>
-0.0799008643765514

> <r_glide_res:A16_dist>
1.97719840388628

> <r_glide_res:A16_Eint>
-45.4511123491595

> <s_m_source_file>
ligprep_Nicaido_neutral.maegz

> <i_m_source_file_index>
8

> <i_lp_mmshare_version>
58128

> <i_f3d_flags>
0

> <s_lp_Force_Field>
S-OPLS

> <r_lp_Energy>
85.319288

> <b_lp_Chiralities_Consistent>
1

> <s_lp_Variant>
Cefoperazone-1

> <s_epik_input>
W0NIM11bQ0gyXU4xW0NIMl1bQ0gyXU4oQyg9TylDMT1PKUMoPU8pW05IXVtDQEhdKGMyW2NIXVtjSF1jKFtPSF0pW2NIXVtjSF0yKUMoPU8pW05IXVtDQEBIXTNDKD1PKU4oW0NASF0zNClDKEMoPU8pW09IXSk9QyhbQ0gyXVM0KVtDSDJdU2M1bm5ubjVbQ0gzXQ==

> <s_epik_cmdline>
J2VwaWtfcHl0aG9uJywgJy1waHQnLCAnMC4wJywgJy1waCcsICc3LjQnLCAnLW50JywgJy1tYScsICc1MDAnLCAnLWltYWUnLCAnPGluZmlsZS5tYWU+JywgJy1vbWFlJywgJzxvdXRmaWxlLm1hZT4n

> <r_lp_tautomer_probability>
1

> <r_epik_Ionization_Penalty>
  0.0158

> <r_epik_Ionization_Penalty_Charging>
  0.0000

> <r_epik_Ionization_Penalty_Neutral>
  0.0158

> <r_epik_State_Penalty>
  0.0000

> <r_epik_Charging_Adjusted_Penalty>
8.23416745038905e-06

> <i_epik_Tot_Q>
-1

> <i_epik_Tot_abs_Q>
1

> <s_epik_Chemistry_Notes>
This compound contains an acetal/aminal-like group ( X-CH(R)-Y where X, Y are N, S, or O) that may be acid/base labile, releasing an aldehyde.

> <s_m_subgroup_title>
glide-dock_Nicaido_neutral_pv1

> <s_m_subgroupid>
glide-dock_Nicaido_neutral_pv1

> <b_m_subgroup_collapsed>
0

$$$$
Cefsulodin
                    3D
 Schrodinger Suite 2022-2.
 55 58  0  0  1  0            999 V2000
  -23.9346  -25.0941  -22.8133 O   0  0  0  0  0  0
  -23.5693  -24.0037  -22.4249 C   0  0  0  0  0  0
  -22.2298  -23.2735  -22.1206 C   0  0  2  0  0  0
  -21.7807  -23.2912  -20.7272 N   0  0  0  0  0  0
  -21.4700  -24.3563  -19.9731 C   0  0  0  0  0  0
  -21.0779  -24.0108  -18.5191 C   0  0  2  0  0  0
  -20.3957  -25.4157  -17.4945 S   0  0  0  0  0  0
  -19.7194  -26.3495  -18.4136 O   0  0  0  0  0  0
  -21.5688  -25.9843  -16.8135 O   0  5  0  0  0  0
  -19.4719  -24.7496  -16.5613 O   0  0  0  0  0  0
  -22.2342  -23.3268  -17.7801 C   0  0  0  0  0  0
  -23.5631  -23.8057  -17.8835 C   0  0  0  0  0  0
  -24.6125  -23.1504  -17.2129 C   0  0  0  0  0  0
  -24.3451  -22.0242  -16.4140 C   0  0  0  0  0  0
  -23.0259  -21.5491  -16.2921 C   0  0  0  0  0  0
  -21.9759  -22.1949  -16.9748 C   0  0  0  0  0  0
  -21.5303  -25.5087  -20.4009 O   0  0  0  0  0  0
  -23.0479  -21.9958  -22.4068 C   0  0  1  0  0  0
  -24.2301  -22.8145  -22.1738 N   0  0  0  0  0  0
  -25.5065  -22.2398  -22.2075 C   0  0  0  0  0  0
  -26.6057  -23.0050  -23.0042 C   0  0  0  0  0  0
  -27.1688  -23.9498  -22.4132 O   0  5  0  0  0  0
  -26.8074  -22.6284  -24.1801 O   0  0  0  0  0  0
  -25.7461  -21.0970  -21.5191 C   0  0  0  0  0  0
  -27.1195  -20.4268  -21.4123 C   0  0  0  0  0  0
  -27.6626  -19.9489  -22.7087 N   0  3  0  0  0  0
  -26.8420  -19.5492  -23.7176 C   0  0  0  0  0  0
  -27.3731  -19.0939  -24.9411 C   0  0  0  0  0  0
  -28.7744  -19.0286  -25.1113 C   0  0  0  0  0  0
  -29.3917  -18.5467  -26.3914 C   0  0  0  0  0  0
  -28.7690  -17.5496  -27.0183 N   0  0  0  0  0  0
  -30.4363  -19.0391  -26.8134 O   0  0  0  0  0  0
  -29.5994  -19.4550  -24.0484 C   0  0  0  0  0  0
  -29.0118  -19.9064  -22.8492 C   0  0  0  0  0  0
  -24.6771  -20.4939  -20.6139 C   0  0  0  0  0  0
  -23.0069  -20.5101  -21.3269 S   0  0  0  0  0  0
  -21.4312  -23.4282  -22.8459 H   0  0  0  0  0  0
  -21.7683  -22.3884  -20.2720 H   0  0  0  0  0  0
  -20.2466  -23.3124  -18.6055 H   0  0  0  0  0  0
  -23.7861  -24.6793  -18.4779 H   0  0  0  0  0  0
  -25.6236  -23.5227  -17.2934 H   0  0  0  0  0  0
  -25.1521  -21.5352  -15.8872 H   0  0  0  0  0  0
  -22.8206  -20.6887  -15.6715 H   0  0  0  0  0  0
  -20.9686  -21.8186  -16.8697 H   0  0  0  0  0  0
  -22.9929  -21.6923  -23.4560 H   0  0  0  0  0  0
  -27.8266  -21.1378  -20.9809 H   0  0  0  0  0  0
  -27.0979  -19.5563  -20.7551 H   0  0  0  0  0  0
  -25.7785  -19.5720  -23.5342 H   0  0  0  0  0  0
  -26.6942  -18.7588  -25.7138 H   0  0  0  0  0  0
  -27.8857  -17.1465  -26.6631 H   0  0  0  0  0  0
  -29.1879  -17.1208  -27.8304 H   0  0  0  0  0  0
  -30.6762  -19.4159  -24.1394 H   0  0  0  0  0  0
  -29.5971  -20.2204  -21.9961 H   0  0  0  0  0  0
  -24.9092  -19.4571  -20.3695 H   0  0  0  0  0  0
  -24.6698  -21.0464  -19.6735 H   0  0  0  0  0  0
  1  2  2  0  0  0
  2 19  1  0  0  0
  2  3  1  0  0  0
  3  4  1  0  0  0
  3 18  1  0  0  0
  3 37  1  0  0  0
  4  5  1  0  0  0
  4 38  1  0  0  0
  5  6  1  0  0  0
  5 17  2  0  0  0
  6  7  1  0  0  0
  6 11  1  0  0  0
  6 39  1  0  0  0
  7  8  2  0  0  0
  7  9  1  0  0  0
  7 10  2  0  0  0
 11 16  1  0  0  0
 11 12  2  0  0  0
 12 13  1  0  0  0
 12 40  1  0  0  0
 13 14  2  0  0  0
 13 41  1  0  0  0
 14 15  1  0  0  0
 14 42  1  0  0  0
 15 16  2  0  0  0
 15 43  1  0  0  0
 16 44  1  0  0  0
 18 36  1  0  0  0
 18 19  1  0  0  0
 18 45  1  0  0  0
 19 20  1  0  0  0
 20 21  1  0  0  0
 20 24  2  0  0  0
 21 22  1  0  0  0
 21 23  2  0  0  0
 24 25  1  0  0  0
 24 35  1  0  0  0
 25 26  1  0  0  0
 25 46  1  0  0  0
 25 47  1  0  0  0
 26 34  1  0  0  0
 26 27  2  0  0  0
 27 28  1  0  0  0
 27 48  1  0  0  0
 28 29  2  0  0  0
 28 49  1  0  0  0
 29 30  1  0  0  0
 29 33  1  0  0  0
 30 31  1  0  0  0
 30 32  2  0  0  0
 31 50  1  0  0  0
 31 51  1  0  0  0
 33 34  2  0  0  0
 33 52  1  0  0  0
 34 53  1  0  0  0
 35 36  1  0  0  0
 35 54  1  0  0  0
 35 55  1  0  0  0
M  CHG  3   9  -1  22  -1  26   1
M  END
> <s_m_entry_id>
27239

> <s_m_entry_name>
data_maestro.27

> <s_m_Source_Path>
C:\Users\olshana1\Git\GramNeg-Accumulation\Gram Negative Permeation - OmpF

> <s_m_Source_File>
data_maestro.csv

> <i_m_Source_File_Index>
27

> <s_m_job_name>
glide-dock_Nicaido_neutral

> <s_i_glide_gridfile>
3POX-grid

> <i_i_glide_lignum>
34

> <i_i_glide_rotatable_bonds>
9

> <r_i_docking_score>
-6.31438750784115

> <r_i_glide_ligand_efficiency>
-0.175399652995587

> <r_i_glide_ligand_efficiency_sa>
-0.579156892980985

> <r_i_glide_ligand_efficiency_ln>
-1.37762875917516

> <r_i_glide_gscore>
-6.31438750784115

> <r_i_glide_lipo>
0

> <r_i_glide_hbond>
-0.723833949821393

> <r_i_glide_metal>
0

> <r_i_glide_rewards>
4.10898069714428e-10

> <r_i_glide_evdw>
-27.2513866424561

> <r_i_glide_ecoul>
-25.8027248382568

> <r_i_glide_erotb>
0.364921022123239

> <r_i_glide_esite>
-0.722496522692561

> <r_i_glide_emodel>
-96.4973335107947

> <r_i_glide_energy>
-53.0541114807129

> <r_i_glide_einternal>
8.4849853515625

> <i_i_glide_confnum>
64

> <i_i_glide_posenum>
125

> <r_i_glide_eff_state_penalty>
0

> <r_glide_res:A132_vdw>
-2.215280853835

> <r_glide_res:A132_coul>
-39.1697912191625

> <r_glide_res:A132_hbond>
0

> <r_glide_res:A132_dist>
2.62328038667508

> <r_glide_res:A132_Eint>
-41.3850720729975

> <r_glide_res:A117_vdw>
-1.87160219013918

> <r_glide_res:A117_coul>
-15.4719411788081

> <r_glide_res:A117_hbond>
-0.16

> <r_glide_res:A117_dist>
1.6310763746126

> <r_glide_res:A117_Eint>
-17.5035433689473

> <r_glide_res:A113_vdw>
-0.782212812036244

> <r_glide_res:A113_coul>
6.84300732552159

> <r_glide_res:A113_hbond>
0

> <r_glide_res:A113_dist>
3.59584976945415

> <r_glide_res:A113_Eint>
6.06079451348534

> <r_glide_res:A82_vdw>
-0.476235514817782

> <r_glide_res:A82_coul>
-40.610553493758

> <r_glide_res:A82_hbond>
-0.2

> <r_glide_res:A82_dist>
1.79997976247231

> <r_glide_res:A82_Eint>
-41.2867890085758

> <r_glide_res:A42_vdw>
-0.802028319694469

> <r_glide_res:A42_coul>
-29.7480191718291

> <r_glide_res:A42_hbond>
-0.169493760240339

> <r_glide_res:A42_dist>
2.00839714133164

> <r_glide_res:A42_Eint>
-30.719541251764

> <r_glide_res:A16_vdw>
-0.507534849501973

> <r_glide_res:A16_coul>
-16.5684441170736

> <r_glide_res:A16_hbond>
-0.000289600039311429

> <r_glide_res:A16_dist>
2.49566593648012

> <r_glide_res:A16_Eint>
-17.0762685666149

> <s_m_source_file>
ligprep_Nicaido_neutral.maegz

> <i_m_source_file_index>
27

> <i_lp_mmshare_version>
58128

> <i_f3d_flags>
0

> <s_lp_Force_Field>
S-OPLS

> <r_lp_Energy>
54.611133

> <b_lp_Chiralities_Consistent>
1

> <s_lp_Variant>
Cefsulodin-1

> <s_epik_input>
W05IMl1DKD1PKWMoW2NIXVtjSF0xKVtjSF1bY0hdW24rXTFbQ0gyXUMoW0NIMl1TMik9QyhDKD1PKVtPSF0pTihbQ0BASF0yMylDKD1PKVtDQEBIXTNbTkhdQyg9TylbQ0BIXShTKD1PKSg9TylbT0hdKWM0W2NIXVtjSF1bY0hdW2NIXVtjSF00

> <s_epik_cmdline>
J2VwaWtfcHl0aG9uJywgJy1waHQnLCAnMC4wJywgJy1waCcsICc3LjQnLCAnLW50JywgJy1tYScsICc1MDAnLCAnLWltYWUnLCAnPGluZmlsZS5tYWU+JywgJy1vbWFlJywgJzxvdXRmaWxlLm1hZT4n

> <r_lp_tautomer_probability>
1

> <r_epik_Ionization_Penalty>
  0.0010

> <r_epik_Ionization_Penalty_Charging>
  0.0000

> <r_epik_Ionization_Penalty_Neutral>
  0.0010

> <r_epik_State_Penalty>
  0.0000

> <r_epik_Charging_Adjusted_Penalty>
1.59615623662622e-05

> <i_epik_Tot_Q>
-1

> <i_epik_Tot_abs_Q>
3

> <s_epik_Chemistry_Notes>
This compound contains an acetal/aminal-like group ( X-CH(R)-Y where X, Y are N, S, or O) that may be acid/base labile, releasing an aldehyde.

> <s_m_subgroup_title>
glide-dock_Nicaido_neutral_pv1

> <s_m_subgroupid>
glide-dock_Nicaido_neutral_pv1

> <b_m_subgroup_collapsed>
0

$$$$
SCE-796
                    3D
 Schrodinger Suite 2022-2.
 54 57  0  0  1  0            999 V2000
  -29.5144  -24.0215  -22.5415 O   0  0  0  0  0  0
  -29.4164  -23.0097  -21.8785 C   0  0  0  0  0  0
  -29.6683  -22.5953  -20.4134 C   0  0  2  0  0  0
  -29.2675  -21.1745  -20.8576 C   0  0  2  0  0  0
  -28.8618  -21.7620  -22.1260 N   0  0  0  0  0  0
  -28.0345  -21.1299  -23.0753 C   0  0  0  0  0  0
  -27.8895  -21.9135  -24.4140 C   0  0  0  0  0  0
  -26.7206  -22.0569  -24.8134 O   0  5  0  0  0  0
  -28.9127  -22.3495  -24.9924 O   0  0  0  0  0  0
  -27.3792  -19.9537  -22.8424 C   0  0  0  0  0  0
  -27.5450  -19.1991  -21.5199 C   0  0  0  0  0  0
  -27.8655  -20.2783  -20.1213 S   0  0  0  0  0  0
  -26.4996  -19.2312  -23.8913 C   0  0  0  0  0  0
  -25.0492  -19.2709  -23.5620 N   0  3  0  0  0  0
  -24.2540  -20.2038  -24.1491 C   0  0  0  0  0  0
  -22.8684  -20.2505  -23.8933 C   0  0  0  0  0  0
  -22.2938  -19.2959  -23.0308 C   0  0  0  0  0  0
  -23.1384  -18.3495  -22.4136 C   0  0  0  0  0  0
  -24.5123  -18.3496  -22.7194 C   0  0  0  0  0  0
  -20.8162  -19.2807  -22.7918 C   0  0  0  0  0  0
  -20.2544  -18.0728  -22.8043 N   0  0  0  0  0  0
  -20.1746  -20.3191  -22.6549 O   0  0  0  0  0  0
  -28.7689  -23.1252  -19.3740 N   0  0  0  0  0  0
  -27.5385  -23.6604  -19.4734 C   0  0  0  0  0  0
  -26.8212  -23.9406  -18.1444 C   0  0  2  0  0  0
  -25.4703  -23.2010  -18.0184 C   0  0  0  0  0  0
  -25.2205  -22.4182  -16.8684 C   0  0  0  0  0  0
  -24.0023  -21.7334  -16.7044 C   0  0  0  0  0  0
  -23.0134  -21.8109  -17.7014 C   0  0  0  0  0  0
  -23.2430  -22.5845  -18.8542 C   0  0  0  0  0  0
  -24.4589  -23.2790  -19.0088 C   0  0  0  0  0  0
  -26.6737  -25.4788  -18.0603 C   0  0  0  0  0  0
  -27.7142  -26.1753  -18.0134 O   0  5  0  0  0  0
  -25.5194  -25.9496  -18.0134 O   0  0  0  0  0  0
  -27.0023  -23.9496  -20.5485 O   0  0  0  0  0  0
  -30.7182  -22.6749  -20.1428 H   0  0  0  0  0  0
  -30.1272  -20.5139  -20.9870 H   0  0  0  0  0  0
  -26.6580  -18.6448  -21.2336 H   0  0  0  0  0  0
  -28.3690  -18.4903  -21.6084 H   0  0  0  0  0  0
  -26.6129  -19.6239  -24.8993 H   0  0  0  0  0  0
  -26.7838  -18.1953  -24.0134 H   0  0  0  0  0  0
  -24.7191  -20.8752  -24.8481 H   0  0  0  0  0  0
  -22.2478  -20.9857  -24.3855 H   0  0  0  0  0  0
  -22.7398  -17.5951  -21.7500 H   0  0  0  0  0  0
  -25.1689  -17.5891  -22.3330 H   0  0  0  0  0  0
  -20.8260  -17.2678  -23.0381 H   0  0  0  0  0  0
  -19.2605  -17.9784  -22.6587 H   0  0  0  0  0  0
  -29.1069  -22.9454  -18.4368 H   0  0  0  0  0  0
  -27.4667  -23.6278  -17.3213 H   0  0  0  0  0  0
  -25.9689  -22.3495  -16.0931 H   0  0  0  0  0  0
  -23.8320  -21.1496  -15.8116 H   0  0  0  0  0  0
  -22.0812  -21.2791  -17.5804 H   0  0  0  0  0  0
  -22.4842  -22.6484  -19.6197 H   0  0  0  0  0  0
  -24.6024  -23.8806  -19.8921 H   0  0  0  0  0  0
  1  2  2  0  0  0
  2  5  1  0  0  0
  2  3  1  0  0  0
  3  4  1  0  0  0
  3 23  1  0  0  0
  3 36  1  0  0  0
  4 12  1  0  0  0
  4  5  1  0  0  0
  4 37  1  0  0  0
  5  6  1  0  0  0
  6  7  1  0  0  0
  6 10  2  0  0  0
  7  8  1  0  0  0
  7  9  2  0  0  0
 10 11  1  0  0  0
 10 13  1  0  0  0
 11 12  1  0  0  0
 11 38  1  0  0  0
 11 39  1  0  0  0
 13 14  1  0  0  0
 13 40  1  0  0  0
 13 41  1  0  0  0
 14 19  1  0  0  0
 14 15  2  0  0  0
 15 16  1  0  0  0
 15 42  1  0  0  0
 16 17  2  0  0  0
 16 43  1  0  0  0
 17 18  1  0  0  0
 17 20  1  0  0  0
 18 19  2  0  0  0
 18 44  1  0  0  0
 19 45  1  0  0  0
 20 21  1  0  0  0
 20 22  2  0  0  0
 21 46  1  0  0  0
 21 47  1  0  0  0
 23 24  1  0  0  0
 23 48  1  0  0  0
 24 25  1  0  0  0
 24 35  2  0  0  0
 25 26  1  0  0  0
 25 32  1  0  0  0
 25 49  1  0  0  0
 26 31  1  0  0  0
 26 27  2  0  0  0
 27 28  1  0  0  0
 27 50  1  0  0  0
 28 29  2  0  0  0
 28 51  1  0  0  0
 29 30  1  0  0  0
 29 52  1  0  0  0
 30 31  2  0  0  0
 30 53  1  0  0  0
 31 54  1  0  0  0
 32 33  1  0  0  0
 32 34  2  0  0  0
M  CHG  3   8  -1  14   1  33  -1
M  END
> <s_m_entry_id>
27240

> <s_m_entry_name>
data_maestro.28

> <s_m_Source_Path>
C:\Users\olshana1\Git\GramNeg-Accumulation\Gram Negative Permeation - OmpF

> <s_m_Source_File>
data_maestro.csv

> <i_m_Source_File_Index>
28

> <s_m_job_name>
glide-dock_Nicaido_neutral

> <s_i_glide_gridfile>
3POX-grid

> <i_i_glide_lignum>
35

> <i_i_glide_rotatable_bonds>
9

> <r_i_docking_score>
-6.31314326415063

> <r_i_glide_ligand_efficiency>
-0.180375521832875

> <r_i_glide_ligand_efficiency_sa>
-0.590020291950962

> <r_i_glide_ligand_efficiency_ln>
-1.38587505914674

> <r_i_glide_gscore>
-6.31314326415063

> <r_i_glide_lipo>
0

> <r_i_glide_hbond>
-1.33286688189629

> <r_i_glide_metal>
0

> <r_i_glide_rewards>
-0.0273037925602929

> <r_i_glide_evdw>
-18.4925365447998

> <r_i_glide_ecoul>
-24.9935340881348

> <r_i_glide_erotb>
0.415177540389138

> <r_i_glide_esite>
-0.694493189622987

> <r_i_glide_emodel>
-81.5907033466153

> <r_i_glide_energy>
-43.4860706329346

> <r_i_glide_einternal>
9.2120189666748

> <i_i_glide_confnum>
19

> <i_i_glide_posenum>
141

> <r_i_glide_eff_state_penalty>
0

> <r_glide_res:A132_vdw>
-2.06045190870969

> <r_glide_res:A132_coul>
-55.9295410252744

> <r_glide_res:A132_hbond>
-0.280918045865783

> <r_glide_res:A132_dist>
2.09202101052978

> <r_glide_res:A132_Eint>
-58.2709109798499

> <r_glide_res:A117_vdw>
-0.277545668922388

> <r_glide_res:A117_coul>
-9.39135418861612

> <r_glide_res:A117_hbond>
0

> <r_glide_res:A117_dist>
2.10426402811364

> <r_glide_res:A117_Eint>
-9.66889985753851

> <r_glide_res:A113_vdw>
-0.745540645688039

> <r_glide_res:A113_coul>
14.1940791029581

> <r_glide_res:A113_hbond>
-0.021907629392899

> <r_glide_res:A113_dist>
2.17248428858354

> <r_glide_res:A113_Eint>
13.4266308278771

> <r_glide_res:A82_vdw>
-1.74612514277935

> <r_glide_res:A82_coul>
-47.1403102795132

> <r_glide_res:A82_hbond>
-0.16

> <r_glide_res:A82_dist>
1.92752100195783

> <r_glide_res:A82_Eint>
-49.0464354222925

> <r_glide_res:A42_vdw>
2.98547379338371

> <r_glide_res:A42_coul>
-48.848164302633

> <r_glide_res:A42_hbond>
-0.41684768671157

> <r_glide_res:A42_dist>
1.64692468057903

> <r_glide_res:A42_Eint>
-46.2795381959609

> <r_glide_res:A16_vdw>
-0.363608911411978

> <r_glide_res:A16_coul>
-24.3529921282654

> <r_glide_res:A16_hbond>
0

> <r_glide_res:A16_dist>
3.61890658482217

> <r_glide_res:A16_Eint>
-24.7166010396774

> <s_m_source_file>
ligprep_Nicaido_neutral.maegz

> <i_m_source_file_index>
28

> <i_lp_mmshare_version>
58128

> <i_f3d_flags>
0

> <s_lp_Force_Field>
S-OPLS

> <r_lp_Energy>
64.89814

> <b_lp_Chiralities_Consistent>
1

> <s_lp_Variant>
SCE-796-1

> <s_epik_input>
W2NIXTFbY0hdW2NIXVtjSF1bY0hdYzFbQ0BIXShDKD1PKVtPSF0pQyg9TylbTkhdW0NAQEhdMkMoPU8pTihbQ0BASF0yMylDKEMoPU8pW09IXSk9QyhbQ0gyXVMzKVtDSDJdW24rXTRbY0hdW2NIXWMoW2NIXVtjSF00KUMoPU8pW05IMl0=

> <s_epik_cmdline>
J2VwaWtfcHl0aG9uJywgJy1waHQnLCAnMC4wJywgJy1waCcsICc3LjQnLCAnLW50JywgJy1tYScsICc1MDAnLCAnLWltYWUnLCAnPGluZmlsZS5tYWU+JywgJy1vbWFlJywgJzxvdXRmaWxlLm1hZT4n

> <r_lp_tautomer_probability>
1

> <r_epik_Ionization_Penalty>
  0.0010

> <r_epik_Ionization_Penalty_Charging>
  0.0001

> <r_epik_Ionization_Penalty_Neutral>
  0.0010

> <r_epik_State_Penalty>
  0.0000

> <r_epik_Charging_Adjusted_Penalty>
5.79311335039239e-05

> <i_epik_Tot_Q>
-1

> <i_epik_Tot_abs_Q>
3

> <s_epik_Chemistry_Notes>
This compound contains an acetal/aminal-like group ( X-CH(R)-Y where X, Y are N, S, or O) that may be acid/base labile, releasing an aldehyde.

> <s_m_subgroup_title>
glide-dock_Nicaido_neutral_pv1

> <s_m_subgroupid>
glide-dock_Nicaido_neutral_pv1

> <b_m_subgroup_collapsed>
0

$$$$
Cefsulodin
                    3D
 Schrodinger Suite 2022-2.
 55 58  0  0  1  0            999 V2000
  -24.3690  -24.5222  -22.2251 O   0  0  0  0  0  0
  -24.2172  -23.4489  -21.6814 C   0  0  0  0  0  0
  -23.0282  -22.5235  -21.3292 C   0  0  2  0  0  0
  -22.2836  -22.8608  -20.1143 N   0  0  0  0  0  0
  -21.6638  -24.0072  -19.7832 C   0  0  0  0  0  0
  -20.7959  -23.9282  -18.5055 C   0  0  2  0  0  0
  -20.3619  -25.5444  -17.6804 S   0  0  0  0  0  0
  -19.2384  -25.1540  -16.8133 O   0  0  0  0  0  0
  -19.9692  -26.4874  -18.7432 O   0  5  0  0  0  0
  -21.5645  -25.9494  -16.9316 O   0  0  0  0  0  0
  -21.3586  -22.9465  -17.4706 C   0  0  0  0  0  0
  -20.5796  -21.8412  -17.0637 C   0  0  0  0  0  0
  -21.0885  -20.9147  -16.1342 C   0  0  0  0  0  0
  -22.3796  -21.0870  -15.6035 C   0  0  0  0  0  0
  -23.1633  -22.1877  -15.9971 C   0  0  0  0  0  0
  -22.6547  -23.1145  -16.9266 C   0  0  0  0  0  0
  -21.7179  -25.0174  -20.4840 O   0  0  0  0  0  0
  -24.1100  -21.4620  -21.0347 C   0  0  1  0  0  0
  -25.0937  -22.5288  -21.1184 N   0  0  0  0  0  0
  -26.4532  -22.3716  -20.7608 C   0  0  0  0  0  0
  -27.4082  -23.5234  -21.2515 C   0  0  0  0  0  0
  -28.2313  -23.9496  -20.4178 O   0  5  0  0  0  0
  -27.2684  -23.9495  -22.4221 O   0  0  0  0  0  0
  -26.9041  -21.2905  -20.0519 C   0  0  0  0  0  0
  -28.3695  -21.0340  -19.6615 C   0  0  0  0  0  0
  -29.1463  -20.5301  -20.8139 N   0  3  0  0  0  0
  -30.0005  -21.3584  -21.4690 C   0  0  0  0  0  0
  -30.6946  -20.9201  -22.6165 C   0  0  0  0  0  0
  -30.5230  -19.5931  -23.0666 C   0  0  0  0  0  0
  -31.2047  -19.1166  -24.3153 C   0  0  0  0  0  0
  -31.6563  -17.8620  -24.2940 N   0  0  0  0  0  0
  -31.3626  -19.8625  -25.2816 O   0  0  0  0  0  0
  -29.6566  -18.7466  -22.3413 C   0  0  0  0  0  0
  -28.9772  -19.2442  -21.2121 C   0  0  0  0  0  0
  -25.9864  -20.1760  -19.5453 C   0  0  0  0  0  0
  -24.2483  -20.6434  -19.4185 S   0  0  0  0  0  0
  -22.3916  -22.2449  -22.1694 H   0  0  0  0  0  0
  -22.2243  -22.1150  -19.4337 H   0  0  0  0  0  0
  -19.8377  -23.5489  -18.8568 H   0  0  0  0  0  0
  -19.5868  -21.6940  -17.4630 H   0  0  0  0  0  0
  -20.4898  -20.0691  -15.8284 H   0  0  0  0  0  0
  -22.7678  -20.3777  -14.8865 H   0  0  0  0  0  0
  -24.1527  -22.3195  -15.5809 H   0  0  0  0  0  0
  -23.2693  -23.9512  -17.2258 H   0  0  0  0  0  0
  -24.2410  -20.7468  -21.8502 H   0  0  0  0  0  0
  -28.8642  -21.9151  -19.2567 H   0  0  0  0  0  0
  -28.4466  -20.2822  -18.8748 H   0  0  0  0  0  0
  -30.1091  -22.3548  -21.0675 H   0  0  0  0  0  0
  -31.3585  -21.5946  -23.1384 H   0  0  0  0  0  0
  -31.5545  -17.2885  -23.4652 H   0  0  0  0  0  0
  -32.1085  -17.4817  -25.1112 H   0  0  0  0  0  0
  -29.4948  -17.7219  -22.6454 H   0  0  0  0  0  0
  -28.3019  -18.6388  -20.6240 H   0  0  0  0  0  0
  -26.0751  -19.3110  -20.2029 H   0  0  0  0  0  0
  -26.2929  -19.8585  -18.5483 H   0  0  0  0  0  0
  1  2  2  0  0  0
  2 19  1  0  0  0
  2  3  1  0  0  0
  3  4  1  0  0  0
  3 18  1  0  0  0
  3 37  1  0  0  0
  4  5  1  0  0  0
  4 38  1  0  0  0
  5  6  1  0  0  0
  5 17  2  0  0  0
  6  7  1  0  0  0
  6 11  1  0  0  0
  6 39  1  0  0  0
  7  8  2  0  0  0
  7  9  1  0  0  0
  7 10  2  0  0  0
 11 16  1  0  0  0
 11 12  2  0  0  0
 12 13  1  0  0  0
 12 40  1  0  0  0
 13 14  2  0  0  0
 13 41  1  0  0  0
 14 15  1  0  0  0
 14 42  1  0  0  0
 15 16  2  0  0  0
 15 43  1  0  0  0
 16 44  1  0  0  0
 18 36  1  0  0  0
 18 19  1  0  0  0
 18 45  1  0  0  0
 19 20  1  0  0  0
 20 21  1  0  0  0
 20 24  2  0  0  0
 21 22  1  0  0  0
 21 23  2  0  0  0
 24 25  1  0  0  0
 24 35  1  0  0  0
 25 26  1  0  0  0
 25 46  1  0  0  0
 25 47  1  0  0  0
 26 34  1  0  0  0
 26 27  2  0  0  0
 27 28  1  0  0  0
 27 48  1  0  0  0
 28 29  2  0  0  0
 28 49  1  0  0  0
 29 30  1  0  0  0
 29 33  1  0  0  0
 30 31  1  0  0  0
 30 32  2  0  0  0
 31 50  1  0  0  0
 31 51  1  0  0  0
 33 34  2  0  0  0
 33 52  1  0  0  0
 34 53  1  0  0  0
 35 36  1  0  0  0
 35 54  1  0  0  0
 35 55  1  0  0  0
M  CHG  3   9  -1  22  -1  26   1
M  END
> <s_m_entry_id>
27241

> <s_m_entry_name>
data_maestro.27

> <s_m_Source_Path>
C:\Users\olshana1\Git\GramNeg-Accumulation\Gram Negative Permeation - OmpF

> <s_m_Source_File>
data_maestro.csv

> <i_m_Source_File_Index>
27

> <s_m_job_name>
glide-dock_Nicaido_neutral

> <s_i_glide_gridfile>
3POX-grid

> <i_i_glide_lignum>
34

> <i_i_glide_rotatable_bonds>
9

> <r_i_docking_score>
-6.28011384893736

> <r_i_glide_ligand_efficiency>
-0.174447606914927

> <r_i_glide_ligand_efficiency_sa>
-0.576013306088803

> <r_i_glide_ligand_efficiency_ln>
-1.37015117276961

> <r_i_glide_gscore>
-6.28011384893736

> <r_i_glide_lipo>
0

> <r_i_glide_hbond>
-0.866627876915149

> <r_i_glide_metal>
0

> <r_i_glide_rewards>
0.000221201915740651

> <r_i_glide_evdw>
-28.3444919586182

> <r_i_glide_ecoul>
-25.0894527435303

> <r_i_glide_erotb>
0.364921022123239

> <r_i_glide_esite>
-0.597985686600737

> <r_i_glide_emodel>
-95.7605819948395

> <r_i_glide_energy>
-53.4339447021484

> <r_i_glide_einternal>
10.1992273330688

> <i_i_glide_confnum>
35

> <i_i_glide_posenum>
31

> <r_i_glide_eff_state_penalty>
0

> <r_glide_res:A132_vdw>
-0.173215819196466

> <r_glide_res:A132_coul>
-49.5776734237746

> <r_glide_res:A132_hbond>
-0.213393095003803

> <r_glide_res:A132_dist>
1.75037046403163

> <r_glide_res:A132_Eint>
-49.9642823379748

> <r_glide_res:A117_vdw>
-1.86039049407604

> <r_glide_res:A117_coul>
4.2929908676789

> <r_glide_res:A117_hbond>
0

> <r_glide_res:A117_dist>
2.43418083129524

> <r_glide_res:A117_Eint>
2.43260037360286

> <r_glide_res:A113_vdw>
-2.52703603936249

> <r_glide_res:A113_coul>
-6.9024919222194

> <r_glide_res:A113_hbond>
0

> <r_glide_res:A113_dist>
2.48307524469416

> <r_glide_res:A113_Eint>
-9.42952796158189

> <r_glide_res:A82_vdw>
-0.499443247424892

> <r_glide_res:A82_coul>
-41.4734453470617

> <r_glide_res:A82_hbond>
-0.2

> <r_glide_res:A82_dist>
1.79568121107616

> <r_glide_res:A82_Eint>
-42.1728885944866

> <r_glide_res:A42_vdw>
-0.655951886862567

> <r_glide_res:A42_coul>
-22.7745220475915

> <r_glide_res:A42_hbond>
0

> <r_glide_res:A42_dist>
3.8698279570778

> <r_glide_res:A42_Eint>
-23.4304739344541

> <r_glide_res:A16_vdw>
-0.416622011653813

> <r_glide_res:A16_coul>
-13.836024231707

> <r_glide_res:A16_hbond>
0

> <r_glide_res:A16_dist>
3.29912912919522

> <r_glide_res:A16_Eint>
-14.2526462433609

> <s_m_source_file>
ligprep_Nicaido_neutral.maegz

> <i_m_source_file_index>
27

> <i_lp_mmshare_version>
58128

> <i_f3d_flags>
0

> <s_lp_Force_Field>
S-OPLS

> <r_lp_Energy>
54.611133

> <b_lp_Chiralities_Consistent>
1

> <s_lp_Variant>
Cefsulodin-1

> <s_epik_input>
W05IMl1DKD1PKWMoW2NIXVtjSF0xKVtjSF1bY0hdW24rXTFbQ0gyXUMoW0NIMl1TMik9QyhDKD1PKVtPSF0pTihbQ0BASF0yMylDKD1PKVtDQEBIXTNbTkhdQyg9TylbQ0BIXShTKD1PKSg9TylbT0hdKWM0W2NIXVtjSF1bY0hdW2NIXVtjSF00

> <s_epik_cmdline>
J2VwaWtfcHl0aG9uJywgJy1waHQnLCAnMC4wJywgJy1waCcsICc3LjQnLCAnLW50JywgJy1tYScsICc1MDAnLCAnLWltYWUnLCAnPGluZmlsZS5tYWU+JywgJy1vbWFlJywgJzxvdXRmaWxlLm1hZT4n

> <r_lp_tautomer_probability>
1

> <r_epik_Ionization_Penalty>
  0.0010

> <r_epik_Ionization_Penalty_Charging>
  0.0000

> <r_epik_Ionization_Penalty_Neutral>
  0.0010

> <r_epik_State_Penalty>
  0.0000

> <r_epik_Charging_Adjusted_Penalty>
1.59615623662622e-05

> <i_epik_Tot_Q>
-1

> <i_epik_Tot_abs_Q>
3

> <s_epik_Chemistry_Notes>
This compound contains an acetal/aminal-like group ( X-CH(R)-Y where X, Y are N, S, or O) that may be acid/base labile, releasing an aldehyde.

> <s_m_subgroup_title>
glide-dock_Nicaido_neutral_pv1

> <s_m_subgroupid>
glide-dock_Nicaido_neutral_pv1

> <b_m_subgroup_collapsed>
0

$$$$
Cefsulodin
                    3D
 Schrodinger Suite 2022-2.
 55 58  0  0  1  0            999 V2000
  -24.7687  -24.1615  -23.8654 O   0  0  0  0  0  0
  -24.5717  -23.2342  -23.1070 C   0  0  0  0  0  0
  -23.3504  -22.4974  -22.5043 C   0  0  2  0  0  0
  -22.6338  -23.2561  -21.4814 N   0  0  0  0  0  0
  -21.8229  -24.3105  -21.6813 C   0  0  0  0  0  0
  -21.1264  -24.9086  -20.4323 C   0  0  2  0  0  0
  -20.9111  -26.7609  -20.5319 S   0  0  0  0  0  0
  -22.2614  -27.2771  -20.8131 O   0  0  0  0  0  0
  -20.3689  -27.1494  -19.2140 O   0  5  0  0  0  0
  -19.9579  -26.9508  -21.6353 O   0  0  0  0  0  0
  -21.8140  -24.4924  -19.1241 C   0  0  0  0  0  0
  -21.1613  -23.5962  -18.2496 C   0  0  0  0  0  0
  -21.8177  -23.1190  -17.0977 C   0  0  0  0  0  0
  -23.1307  -23.5341  -16.8134 C   0  0  0  0  0  0
  -23.7823  -24.4436  -17.6665 C   0  0  0  0  0  0
  -23.1250  -24.9252  -18.8154 C   0  0  0  0  0  0
  -21.6068  -24.7523  -22.8115 O   0  0  0  0  0  0
  -24.3838  -21.5348  -21.8851 C   0  0  1  0  0  0
  -25.4216  -22.4328  -22.3598 N   0  0  0  0  0  0
  -26.7876  -22.2931  -22.0323 C   0  0  0  0  0  0
  -27.7422  -23.1496  -22.9306 C   0  0  0  0  0  0
  -28.2358  -24.1701  -22.4023 O   0  5  0  0  0  0
  -27.8525  -22.8036  -24.1285 O   0  0  0  0  0  0
  -27.2265  -21.4814  -21.0235 C   0  0  0  0  0  0
  -28.6936  -21.3093  -20.6057 C   0  0  0  0  0  0
  -29.4698  -20.5157  -21.5838 N   0  3  0  0  0  0
  -29.3021  -19.1682  -21.6632 C   0  0  0  0  0  0
  -29.9893  -18.4152  -22.6414 C   0  0  0  0  0  0
  -30.8588  -19.0771  -23.5424 C   0  0  0  0  0  0
  -31.5298  -18.3590  -24.6758 C   0  0  0  0  0  0
  -32.0328  -17.1528  -24.4154 N   0  0  0  0  0  0
  -31.6581  -18.8989  -25.7743 O   0  0  0  0  0  0
  -31.0370  -20.4698  -23.4078 C   0  0  0  0  0  0
  -30.3380  -21.1648  -22.4035 C   0  0  0  0  0  0
  -26.2761  -20.6666  -20.1430 C   0  0  0  0  0  0
  -24.5869  -21.3120  -20.0937 S   0  0  0  0  0  0
  -22.6988  -22.0018  -23.2274 H   0  0  0  0  0  0
  -22.7696  -22.9508  -20.5252 H   0  0  0  0  0  0
  -20.1124  -24.5131  -20.4227 H   0  0  0  0  0  0
  -20.1635  -23.2445  -18.4695 H   0  0  0  0  0  0
  -21.3208  -22.4177  -16.4445 H   0  0  0  0  0  0
  -23.6415  -23.1496  -15.9418 H   0  0  0  0  0  0
  -24.7943  -24.7531  -17.4436 H   0  0  0  0  0  0
  -23.6456  -25.5999  -19.4782 H   0  0  0  0  0  0
  -24.4383  -20.5775  -22.4094 H   0  0  0  0  0  0
  -29.1709  -22.2816  -20.4780 H   0  0  0  0  0  0
  -28.7810  -20.8027  -19.6422 H   0  0  0  0  0  0
  -28.6089  -18.7270  -20.9596 H   0  0  0  0  0  0
  -29.8187  -17.3494  -22.7122 H   0  0  0  0  0  0
  -31.9552  -16.7200  -23.4969 H   0  0  0  0  0  0
  -32.4771  -16.6441  -25.1624 H   0  0  0  0  0  0
  -31.6955  -21.0064  -24.0754 H   0  0  0  0  0  0
  -30.4324  -22.2331  -22.2676 H   0  0  0  0  0  0
  -26.2602  -19.6354  -20.4972 H   0  0  0  0  0  0
  -26.6322  -20.6433  -19.1125 H   0  0  0  0  0  0
  1  2  2  0  0  0
  2 19  1  0  0  0
  2  3  1  0  0  0
  3  4  1  0  0  0
  3 18  1  0  0  0
  3 37  1  0  0  0
  4  5  1  0  0  0
  4 38  1  0  0  0
  5  6  1  0  0  0
  5 17  2  0  0  0
  6  7  1  0  0  0
  6 11  1  0  0  0
  6 39  1  0  0  0
  7  8  2  0  0  0
  7  9  1  0  0  0
  7 10  2  0  0  0
 11 16  1  0  0  0
 11 12  2  0  0  0
 12 13  1  0  0  0
 12 40  1  0  0  0
 13 14  2  0  0  0
 13 41  1  0  0  0
 14 15  1  0  0  0
 14 42  1  0  0  0
 15 16  2  0  0  0
 15 43  1  0  0  0
 16 44  1  0  0  0
 18 36  1  0  0  0
 18 19  1  0  0  0
 18 45  1  0  0  0
 19 20  1  0  0  0
 20 21  1  0  0  0
 20 24  2  0  0  0
 21 22  1  0  0  0
 21 23  2  0  0  0
 24 25  1  0  0  0
 24 35  1  0  0  0
 25 26  1  0  0  0
 25 46  1  0  0  0
 25 47  1  0  0  0
 26 34  1  0  0  0
 26 27  2  0  0  0
 27 28  1  0  0  0
 27 48  1  0  0  0
 28 29  2  0  0  0
 28 49  1  0  0  0
 29 30  1  0  0  0
 29 33  1  0  0  0
 30 31  1  0  0  0
 30 32  2  0  0  0
 31 50  1  0  0  0
 31 51  1  0  0  0
 33 34  2  0  0  0
 33 52  1  0  0  0
 34 53  1  0  0  0
 35 36  1  0  0  0
 35 54  1  0  0  0
 35 55  1  0  0  0
M  CHG  3   9  -1  22  -1  26   1
M  END
> <s_m_entry_id>
27242

> <s_m_entry_name>
data_maestro.27

> <s_m_Source_Path>
C:\Users\olshana1\Git\GramNeg-Accumulation\Gram Negative Permeation - OmpF

> <s_m_Source_File>
data_maestro.csv

> <i_m_Source_File_Index>
27

> <s_m_job_name>
glide-dock_Nicaido_neutral

> <s_i_glide_gridfile>
3POX-grid

> <i_i_glide_lignum>
34

> <i_i_glide_rotatable_bonds>
9

> <r_i_docking_score>
-6.2183498675231

> <r_i_glide_ligand_efficiency>
-0.172731940764531

> <r_i_glide_ligand_efficiency_sa>
-0.570348301283572

> <r_i_glide_ligand_efficiency_ln>
-1.35667594069496

> <r_i_glide_gscore>
-6.2183498675231

> <r_i_glide_lipo>
0

> <r_i_glide_hbond>
-1.08962723083913

> <r_i_glide_metal>
0

> <r_i_glide_rewards>
4.50726279709107e-10

> <r_i_glide_evdw>
-27.5068340301514

> <r_i_glide_ecoul>
-24.2108097076416

> <r_i_glide_erotb>
0.364921022123239

> <r_i_glide_esite>
-0.486680501604132

> <r_i_glide_emodel>
-97.1244620676702

> <r_i_glide_energy>
-51.717643737793

> <r_i_glide_einternal>
3.10725665092468

> <i_i_glide_confnum>
32

> <i_i_glide_posenum>
169

> <r_i_glide_eff_state_penalty>
0

> <r_glide_res:A132_vdw>
-2.83493459549149

> <r_glide_res:A132_coul>
-43.295613035076

> <r_glide_res:A132_hbond>
-0.00930492995785368

> <r_glide_res:A132_dist>
2.44151348862382

> <r_glide_res:A132_Eint>
-46.1398525605254

> <r_glide_res:A117_vdw>
-2.75260383962364

> <r_glide_res:A117_coul>
8.3881904441041

> <r_glide_res:A117_hbond>
0

> <r_glide_res:A117_dist>
2.62775259999102

> <r_glide_res:A117_Eint>
5.63558660448046

> <r_glide_res:A113_vdw>
-2.89185222640288

> <r_glide_res:A113_coul>
-7.21550018946819

> <r_glide_res:A113_hbond>
0

> <r_glide_res:A113_dist>
2.50200081723807

> <r_glide_res:A113_Eint>
-10.1073524158711

> <r_glide_res:A82_vdw>
-0.883739516071373

> <r_glide_res:A82_coul>
-48.8685674065968

> <r_glide_res:A82_hbond>
-0.29560768756844

> <r_glide_res:A82_dist>
1.95705293361088

> <r_glide_res:A82_Eint>
-50.0479146102366

> <r_glide_res:A42_vdw>
-1.75202399014574

> <r_glide_res:A42_coul>
-38.2276248635517

> <r_glide_res:A42_hbond>
-0.104714613312832

> <r_glide_res:A42_dist>
2.26891071392365

> <r_glide_res:A42_Eint>
-40.0843634670102

> <r_glide_res:A16_vdw>
-0.508180766687123

> <r_glide_res:A16_coul>
-19.4803290438742

> <r_glide_res:A16_hbond>
0

> <r_glide_res:A16_dist>
3.53280955301331

> <r_glide_res:A16_Eint>
-19.9885098105614

> <s_m_source_file>
ligprep_Nicaido_neutral.maegz

> <i_m_source_file_index>
27

> <i_lp_mmshare_version>
58128

> <i_f3d_flags>
0

> <s_lp_Force_Field>
S-OPLS

> <r_lp_Energy>
54.611133

> <b_lp_Chiralities_Consistent>
1

> <s_lp_Variant>
Cefsulodin-1

> <s_epik_input>
W05IMl1DKD1PKWMoW2NIXVtjSF0xKVtjSF1bY0hdW24rXTFbQ0gyXUMoW0NIMl1TMik9QyhDKD1PKVtPSF0pTihbQ0BASF0yMylDKD1PKVtDQEBIXTNbTkhdQyg9TylbQ0BIXShTKD1PKSg9TylbT0hdKWM0W2NIXVtjSF1bY0hdW2NIXVtjSF00

> <s_epik_cmdline>
J2VwaWtfcHl0aG9uJywgJy1waHQnLCAnMC4wJywgJy1waCcsICc3LjQnLCAnLW50JywgJy1tYScsICc1MDAnLCAnLWltYWUnLCAnPGluZmlsZS5tYWU+JywgJy1vbWFlJywgJzxvdXRmaWxlLm1hZT4n

> <r_lp_tautomer_probability>
1

> <r_epik_Ionization_Penalty>
  0.0010

> <r_epik_Ionization_Penalty_Charging>
  0.0000

> <r_epik_Ionization_Penalty_Neutral>
  0.0010

> <r_epik_State_Penalty>
  0.0000

> <r_epik_Charging_Adjusted_Penalty>
1.59615623662622e-05

> <i_epik_Tot_Q>
-1

> <i_epik_Tot_abs_Q>
3

> <s_epik_Chemistry_Notes>
This compound contains an acetal/aminal-like group ( X-CH(R)-Y where X, Y are N, S, or O) that may be acid/base labile, releasing an aldehyde.

> <s_m_subgroup_title>
glide-dock_Nicaido_neutral_pv1

> <s_m_subgroupid>
glide-dock_Nicaido_neutral_pv1

> <b_m_subgroup_collapsed>
0

$$$$
Imipenem
                    3D
 Schrodinger Suite 2022-2.
 37 38  0  0  1  0            999 V2000
  -23.0715  -23.4974  -17.2308 C   0  0  0  0  0  0
  -24.0435  -24.0938  -18.2565 C   0  0  2  0  0  0
  -24.9533  -23.0208  -18.8789 C   0  0  1  0  0  0
  -24.4285  -22.2544  -20.1167 C   0  0  2  0  0  0
  -24.7541  -20.8077  -20.5145 C   0  0  0  0  0  0
  -25.4901  -20.9953  -21.8157 C   0  0  0  0  0  0
  -25.9685  -19.6002  -22.7779 S   0  0  0  0  0  0
  -27.7601  -19.5496  -22.4936 C   0  0  0  0  0  0
  -28.0820  -19.2504  -21.0211 C   0  0  0  0  0  0
  -29.5160  -19.0553  -20.8134 N   0  3  0  0  0  0
  -30.2113  -18.0821  -21.4093 C   0  0  0  0  0  0
  -31.5276  -17.9496  -21.2134 N   0  0  0  0  0  0
  -25.8308  -22.2724  -22.0119 C   0  0  0  0  0  0
  -25.3868  -23.0081  -20.9161 N   0  0  0  0  0  0
  -26.0144  -23.6043  -19.8403 C   0  0  0  0  0  0
  -27.0150  -24.2843  -19.7544 O   0  0  0  0  0  0
  -26.7388  -22.9017  -23.1281 C   0  0  0  0  0  0
  -27.3473  -23.9496  -22.8134 O   0  5  0  0  0  0
  -26.7689  -22.3496  -24.2526 O   0  0  0  0  0  0
  -24.7689  -25.1259  -17.6134 O   0  0  0  0  0  0
  -22.4539  -22.7215  -17.6841 H   0  0  0  0  0  0
  -22.4026  -24.2587  -16.8291 H   0  0  0  0  0  0
  -23.6054  -23.0463  -16.3928 H   0  0  0  0  0  0
  -23.4558  -24.5734  -19.0405 H   0  0  0  0  0  0
  -25.3857  -22.3432  -18.1412 H   0  0  0  0  0  0
  -23.4178  -22.5536  -20.4006 H   0  0  0  0  0  0
  -25.3986  -20.3157  -19.7853 H   0  0  0  0  0  0
  -23.8568  -20.2037  -20.6520 H   0  0  0  0  0  0
  -28.1846  -18.7862  -23.1461 H   0  0  0  0  0  0
  -28.2091  -20.4948  -22.7941 H   0  0  0  0  0  0
  -27.7473  -20.0652  -20.3794 H   0  0  0  0  0  0
  -27.5618  -18.3496  -20.6943 H   0  0  0  0  0  0
  -29.7017  -17.3741  -22.0536 H   0  0  0  0  0  0
  -32.0190  -18.5654  -20.5768 H   0  0  0  0  0  0
  -31.9690  -17.1091  -21.5889 H   0  0  0  0  0  0
  -25.3688  -24.7496  -16.9741 H   0  0  0  0  0  0
  -29.9591  -19.5496  -20.0325 H   0  0  0  0  0  0
  1  2  1  0  0  0
  1 21  1  0  0  0
  1 22  1  0  0  0
  1 23  1  0  0  0
  2  3  1  0  0  0
  2 20  1  0  0  0
  2 24  1  0  0  0
  3 15  1  0  0  0
  3  4  1  0  0  0
  3 25  1  0  0  0
  4 14  1  0  0  0
  4  5  1  0  0  0
  4 26  1  0  0  0
  5  6  1  0  0  0
  5 27  1  0  0  0
  5 28  1  0  0  0
  6  7  1  0  0  0
  6 13  2  0  0  0
  7  8  1  0  0  0
  8  9  1  0  0  0
  8 29  1  0  0  0
  8 30  1  0  0  0
  9 10  1  0  0  0
  9 31  1  0  0  0
  9 32  1  0  0  0
 10 11  2  3  0  0
 10 37  1  0  0  0
 11 12  1  0  0  0
 11 33  1  0  0  0
 12 34  1  0  0  0
 12 35  1  0  0  0
 13 14  1  0  0  0
 13 17  1  0  0  0
 14 15  1  0  0  0
 15 16  2  0  0  0
 17 18  1  0  0  0
 17 19  2  0  0  0
 20 36  1  0  0  0
M  CHG  2  10   1  18  -1
M  END
> <s_m_entry_id>
27243

> <s_m_entry_name>
data_maestro.12

> <s_m_Source_Path>
C:\Users\olshana1\Git\GramNeg-Accumulation\Gram Negative Permeation - OmpF

> <s_m_Source_File>
data_maestro.csv

> <i_m_Source_File_Index>
12

> <s_m_job_name>
glide-dock_Nicaido_neutral

> <s_i_glide_gridfile>
3POX-grid

> <i_i_glide_lignum>
16

> <i_i_glide_rotatable_bonds>
7

> <r_i_docking_score>
-6.21333107063958

> <r_i_glide_ligand_efficiency>
-0.310666553531979

> <r_i_glide_ligand_efficiency_sa>
-0.84327876495195

> <r_i_glide_ligand_efficiency_ln>
-1.55499183760707

> <r_i_glide_gscore>
-6.21333107063958

> <r_i_glide_lipo>
0

> <r_i_glide_hbond>
-0.81589446441655

> <r_i_glide_metal>
0

> <r_i_glide_rewards>
-1.36808809090909

> <r_i_glide_evdw>
-11.3672952651978

> <r_i_glide_ecoul>
-26.9233856201172

> <r_i_glide_erotb>
1.02473259195513

> <r_i_glide_esite>
-0.485716344009179

> <r_i_glide_emodel>
-73.2961010962798

> <r_i_glide_energy>
-38.2906808853149

> <r_i_glide_einternal>
5.43128967285156

> <i_i_glide_confnum>
149

> <i_i_glide_posenum>
335

> <r_i_glide_eff_state_penalty>
0

> <r_glide_res:A132_vdw>
-1.26144094241211

> <r_glide_res:A132_coul>
-25.2775382487695

> <r_glide_res:A132_hbond>
-0.243044828555479

> <r_glide_res:A132_dist>
2.00760473328694

> <r_glide_res:A132_Eint>
-26.7820240197371

> <r_glide_res:A117_vdw>
-2.05743726199573

> <r_glide_res:A117_coul>
-0.460849467777784

> <r_glide_res:A117_hbond>
0

> <r_glide_res:A117_dist>
2.3095765561822

> <r_glide_res:A117_Eint>
-2.51828672977351

> <r_glide_res:A113_vdw>
0.467103866726882

> <r_glide_res:A113_coul>
-25.3607128735909

> <r_glide_res:A113_hbond>
-0.2

> <r_glide_res:A113_dist>
1.69150244767485

> <r_glide_res:A113_Eint>
-25.093609006864

> <r_glide_res:A82_vdw>
3.86033651680949

> <r_glide_res:A82_coul>
-32.7394795322571

> <r_glide_res:A82_hbond>
-0.180779467946933

> <r_glide_res:A82_dist>
1.56155893589387

> <r_glide_res:A82_Eint>
-29.0599224833945

> <r_glide_res:A42_vdw>
-0.490390621081468

> <r_glide_res:A42_coul>
-23.944245635944

> <r_glide_res:A42_hbond>
-0.192070167914138

> <r_glide_res:A42_dist>
2.01173283648936

> <r_glide_res:A42_Eint>
-24.6267064249396

> <r_glide_res:A16_vdw>
-0.10583986531654

> <r_glide_res:A16_coul>
-4.6178054077025

> <r_glide_res:A16_hbond>
0

> <r_glide_res:A16_dist>
5.3650045284436

> <r_glide_res:A16_Eint>
-4.72364527301904

> <s_m_source_file>
ligprep_Nicaido_neutral.maegz

> <i_m_source_file_index>
12

> <i_lp_mmshare_version>
58128

> <i_f3d_flags>
0

> <s_lp_Force_Field>
S-OPLS

> <r_lp_Energy>
18.714001

> <b_lp_Chiralities_Consistent>
1

> <s_lp_Variant>
Imipenem-1

> <s_epik_input>
W0NIM11bQ0BASF0oW09IXSlbQ0BASF0xQyg9TylOKFtDQEhdMTIpQyhDKD1PKVtPSF0pPUMoW0NIMl0yKVNbQ0gyXVtDSDJdL049W0NIXS9bTkgyXQ==

> <s_epik_cmdline>
J2VwaWtfcHl0aG9uJywgJy1waHQnLCAnMC4wJywgJy1waCcsICc3LjQnLCAnLW50JywgJy1tYScsICc1MDAnLCAnLWltYWUnLCAnPGluZmlsZS5tYWU+JywgJy1vbWFlJywgJzxvdXRmaWxlLm1hZT4n

> <r_lp_tautomer_probability>
1

> <r_epik_Ionization_Penalty>
  0.0001

> <r_epik_Ionization_Penalty_Charging>
  0.0001

> <r_epik_Ionization_Penalty_Neutral>
  0.0000

> <r_epik_State_Penalty>
  0.0000

> <r_epik_Charging_Adjusted_Penalty>
9.5675940864495e-05

> <i_epik_Tot_Q>
0

> <i_epik_Tot_abs_Q>
2

> <s_epik_Chemistry_Notes>
This compound has an imine and may undergo hydrolysis.

> <s_m_subgroup_title>
glide-dock_Nicaido_neutral_pv1

> <s_m_subgroupid>
glide-dock_Nicaido_neutral_pv1

> <b_m_subgroup_collapsed>
0

$$$$
Ceftazidime
                    3D
 Schrodinger Suite 2022-2.
 58 61  0  0  1  0            999 V2000
  -35.8638  -19.3245  -27.5731 C   0  0  0  0  0  0
  -34.4162  -19.7258  -27.9269 C   0  0  0  0  0  0
  -34.3972  -21.2237  -28.3174 C   0  0  0  0  0  0
  -33.8919  -18.8615  -29.1148 C   0  0  0  0  0  0
  -32.7694  -19.1496  -29.5951 O   0  5  0  0  0  0
  -34.6271  -17.9495  -29.5596 O   0  0  0  0  0  0
  -33.6995  -19.4873  -26.6990 O   0  0  0  0  0  0
  -32.3689  -19.9492  -26.7645 N   0  0  0  0  0  0
  -31.7917  -20.0132  -25.6289 C   0  0  0  0  0  0
  -30.3462  -20.4826  -25.5238 C   0  0  0  0  0  0
  -29.7104  -20.1051  -24.4035 N   0  0  0  0  0  0
  -28.2816  -20.2760  -24.1420 C   0  0  1  0  0  0
  -27.9426  -19.9697  -22.6766 C   0  0  2  0  0  0
  -27.7921  -21.4022  -22.4633 N   0  0  0  0  0  0
  -27.5827  -21.9957  -21.1947 C   0  0  0  0  0  0
  -27.2258  -23.5465  -21.2107 C   0  0  0  0  0  0
  -26.3692  -23.9495  -20.3932 O   0  5  0  0  0  0
  -27.8116  -24.2796  -22.0412 O   0  0  0  0  0  0
  -27.7772  -21.2774  -20.0461 C   0  0  0  0  0  0
  -27.6836  -21.8534  -18.6262 C   0  0  0  0  0  0
  -26.3288  -21.7226  -18.0326 N   0  3  0  0  0  0
  -25.6773  -22.8380  -17.6136 C   0  0  0  0  0  0
  -24.4124  -22.7523  -16.9949 C   0  0  0  0  0  0
  -23.8216  -21.4891  -16.8074 C   0  0  0  0  0  0
  -24.5132  -20.3444  -17.2442 C   0  0  0  0  0  0
  -25.7735  -20.4949  -17.8587 C   0  0  0  0  0  0
  -28.1960  -19.8004  -20.0543 C   0  0  0  0  0  0
  -29.1638  -19.3404  -21.5024 S   0  0  0  0  0  0
  -27.8311  -21.7216  -23.8075 C   0  0  0  0  0  0
  -27.5736  -22.7387  -24.4137 O   0  0  0  0  0  0
  -29.8061  -21.1446  -26.4134 O   0  0  0  0  0  0
  -32.4453  -19.6872  -24.3387 C   0  0  0  0  0  0
  -32.7977  -18.4047  -23.9874 C   0  0  0  0  0  0
  -33.5489  -18.3507  -22.4140 S   0  0  0  0  0  0
  -33.3400  -20.0923  -22.3008 C   0  0  0  0  0  0
  -33.7639  -20.8245  -21.2133 N   0  0  0  0  0  0
  -32.7481  -20.6360  -23.3592 N   0  0  0  0  0  0
  -36.5378  -19.4581  -28.4204 H   0  0  0  0  0  0
  -36.2462  -19.9288  -26.7503 H   0  0  0  0  0  0
  -35.9217  -18.2811  -27.2610 H   0  0  0  0  0  0
  -35.0431  -21.4089  -29.1772 H   0  0  0  0  0  0
  -33.4041  -21.5798  -28.5851 H   0  0  0  0  0  0
  -34.7578  -21.8444  -27.4967 H   0  0  0  0  0  0
  -30.2288  -19.6045  -23.6925 H   0  0  0  0  0  0
  -27.6376  -19.7337  -24.8358 H   0  0  0  0  0  0
  -26.9873  -19.4513  -22.5666 H   0  0  0  0  0  0
  -28.3763  -21.3498  -17.9503 H   0  0  0  0  0  0
  -27.9785  -22.9023  -18.6116 H   0  0  0  0  0  0
  -26.1844  -23.7804  -17.7599 H   0  0  0  0  0  0
  -23.9124  -23.6450  -16.6534 H   0  0  0  0  0  0
  -22.8599  -21.3967  -16.3226 H   0  0  0  0  0  0
  -24.0949  -19.3578  -17.0986 H   0  0  0  0  0  0
  -26.3588  -19.6481  -18.1729 H   0  0  0  0  0  0
  -28.7689  -19.5401  -19.1679 H   0  0  0  0  0  0
  -27.3072  -19.1709  -20.0478 H   0  0  0  0  0  0
  -32.6681  -17.4938  -24.5543 H   0  0  0  0  0  0
  -33.3802  -21.7490  -21.0867 H   0  0  0  0  0  0
  -33.9695  -20.3347  -20.3417 H   0  0  0  0  0  0
  1  2  1  0  0  0
  1 38  1  0  0  0
  1 39  1  0  0  0
  1 40  1  0  0  0
  2  3  1  0  0  0
  2  4  1  0  0  0
  2  7  1  0  0  0
  3 41  1  0  0  0
  3 42  1  0  0  0
  3 43  1  0  0  0
  4  5  1  0  0  0
  4  6  2  0  0  0
  7  8  1  0  0  0
  8  9  2  3  0  0
  9 10  1  0  0  0
  9 32  1  0  0  0
 10 11  1  0  0  0
 10 31  2  0  0  0
 11 12  1  0  0  0
 11 44  1  0  0  0
 12 29  1  0  0  0
 12 13  1  0  0  0
 12 45  1  0  0  0
 13 28  1  0  0  0
 13 14  1  0  0  0
 13 46  1  0  0  0
 14 15  1  0  0  0
 14 29  1  0  0  0
 15 16  1  0  0  0
 15 19  2  0  0  0
 16 17  1  0  0  0
 16 18  2  0  0  0
 19 20  1  0  0  0
 19 27  1  0  0  0
 20 21  1  0  0  0
 20 47  1  0  0  0
 20 48  1  0  0  0
 21 26  1  0  0  0
 21 22  2  0  0  0
 22 23  1  0  0  0
 22 49  1  0  0  0
 23 24  2  0  0  0
 23 50  1  0  0  0
 24 25  1  0  0  0
 24 51  1  0  0  0
 25 26  2  0  0  0
 25 52  1  0  0  0
 26 53  1  0  0  0
 27 28  1  0  0  0
 27 54  1  0  0  0
 27 55  1  0  0  0
 29 30  2  0  0  0
 32 37  1  0  0  0
 32 33  2  0  0  0
 33 34  1  0  0  0
 33 56  1  0  0  0
 34 35  1  0  0  0
 35 36  1  0  0  0
 35 37  2  0  0  0
 36 57  1  0  0  0
 36 58  1  0  0  0
M  CHG  3   5  -1  17  -1  21   1
M  END
> <s_m_entry_id>
27244

> <s_m_entry_name>
data_maestro.30

> <s_m_Source_Path>
C:\Users\olshana1\Git\GramNeg-Accumulation\Gram Negative Permeation - OmpF

> <s_m_Source_File>
data_maestro.csv

> <i_m_Source_File_Index>
30

> <s_m_job_name>
glide-dock_Nicaido_neutral

> <s_i_glide_gridfile>
3POX-grid

> <i_i_glide_lignum>
38

> <i_i_glide_rotatable_bonds>
10

> <r_i_docking_score>
-6.18532965367545

> <r_i_glide_ligand_efficiency>
-0.167171071720958

> <r_i_glide_ligand_efficiency_sa>
-0.557051097481161

> <r_i_glide_ligand_efficiency_ln>
-1.34145299718171

> <r_i_glide_gscore>
-6.18532965367545

> <r_i_glide_lipo>
-0.0419108072948035

> <r_i_glide_hbond>
-1.15348352600856

> <r_i_glide_metal>
0

> <r_i_glide_rewards>
0.0107490836209221

> <r_i_glide_evdw>
-32.1648139953613

> <r_i_glide_ecoul>
-22.0714321136475

> <r_i_glide_erotb>
0.556495996469625

> <r_i_glide_esite>
-0.638224883647447

> <r_i_glide_emodel>
-94.1540822924297

> <r_i_glide_energy>
-54.2362461090088

> <r_i_glide_einternal>
11.1678018569946

> <i_i_glide_confnum>
334

> <i_i_glide_posenum>
260

> <r_i_glide_eff_state_penalty>
0

> <r_glide_res:A132_vdw>
0.773388835319894

> <r_glide_res:A132_coul>
-36.0761863561268

> <r_glide_res:A132_hbond>
-0.271112264104449

> <r_glide_res:A132_dist>
1.89354788260222

> <r_glide_res:A132_Eint>
-35.5739097849114

> <r_glide_res:A117_vdw>
-3.20048850708482

> <r_glide_res:A117_coul>
15.5016212581395

> <r_glide_res:A117_hbond>
0

> <r_glide_res:A117_dist>
2.71544136776952

> <r_glide_res:A117_Eint>
12.3011327510546

> <r_glide_res:A113_vdw>
-3.28681232286974

> <r_glide_res:A113_coul>
3.27478743807534

> <r_glide_res:A113_hbond>
-0.32

> <r_glide_res:A113_dist>
1.80385282492686

> <r_glide_res:A113_Eint>
-0.332024884794399

> <r_glide_res:A82_vdw>
-1.51964092779736

> <r_glide_res:A82_coul>
-43.6971512885907

> <r_glide_res:A82_hbond>
-0.2

> <r_glide_res:A82_dist>
1.98096119448791

> <r_glide_res:A82_Eint>
-45.416792216388

> <r_glide_res:A42_vdw>
-0.934721975142709

> <r_glide_res:A42_coul>
-39.4864515246533

> <r_glide_res:A42_hbond>
-0.154063295335458

> <r_glide_res:A42_dist>
1.90331300043524

> <r_glide_res:A42_Eint>
-40.5752367951315

> <r_glide_res:A16_vdw>
0.81047328414598

> <r_glide_res:A16_coul>
-64.5065220159589

> <r_glide_res:A16_hbond>
-0.177364005954721

> <r_glide_res:A16_dist>
1.71653675733415

> <r_glide_res:A16_Eint>
-63.8734127377676

> <s_m_source_file>
ligprep_Nicaido_neutral.maegz

> <i_m_source_file_index>
30

> <i_lp_mmshare_version>
58128

> <i_f3d_flags>
0

> <s_lp_Force_Field>
S-OPLS

> <r_lp_Energy>
86.633473

> <b_lp_Chiralities_Consistent>
1

> <s_lp_Variant>
Ceftazidime-1

> <s_epik_input>
W09IXUMoPU8pQyhbQ0gzXSkoW0NIM10pTy9OPUMoYzFbY0hdc2MobjEpW05IMl0pL0MoPU8pW05IXVtDQEBIXTJDKD1PKU4oW0NAQEhdMjMpQyhDKD1PKVtPSF0pPUMoW0NIMl1TMylbQ0gyXVtuK100W2NIXVtjSF1bY0hdW2NIXVtjSF00

> <s_epik_cmdline>
J2VwaWtfcHl0aG9uJywgJy1waHQnLCAnMC4wJywgJy1waCcsICc3LjQnLCAnLW50JywgJy1tYScsICc1MDAnLCAnLWltYWUnLCAnPGluZmlsZS5tYWU+JywgJy1vbWFlJywgJzxvdXRmaWxlLm1hZT4n

> <r_lp_tautomer_probability>
1

> <r_epik_Ionization_Penalty>
  0.0005

> <r_epik_Ionization_Penalty_Charging>
  0.0001

> <r_epik_Ionization_Penalty_Neutral>
  0.0005

> <r_epik_State_Penalty>
  0.0000

> <r_epik_Charging_Adjusted_Penalty>
5.84857251211915e-05

> <i_epik_Tot_Q>
-1

> <i_epik_Tot_abs_Q>
3

> <s_epik_Chemistry_Notes>
This compound has an imine and may undergo hydrolysis. This compound contains an acetal/aminal-like group ( X-CH(R)-Y where X, Y are N, S, or O) that may be acid/base labile, releasing an aldehyde.

> <s_m_subgroup_title>
glide-dock_Nicaido_neutral_pv1

> <s_m_subgroupid>
glide-dock_Nicaido_neutral_pv1

> <b_m_subgroup_collapsed>
0

$$$$
Cefsulodin
                    3D
 Schrodinger Suite 2022-2.
 55 58  0  0  1  0            999 V2000
  -24.7707  -24.1337  -23.7005 O   0  0  0  0  0  0
  -24.4585  -23.1705  -23.0293 C   0  0  0  0  0  0
  -23.1431  -22.4432  -22.6611 C   0  0  2  0  0  0
  -22.3546  -23.1514  -21.6532 N   0  0  0  0  0  0
  -21.8612  -24.3969  -21.7533 C   0  0  0  0  0  0
  -21.2862  -24.9862  -20.4461 C   0  0  2  0  0  0
  -20.8963  -26.8069  -20.5493 S   0  0  0  0  0  0
  -20.3699  -27.1452  -19.2115 O   0  0  0  0  0  0
  -19.8901  -26.8913  -21.6196 O   0  5  0  0  0  0
  -22.1800  -27.4532  -20.8719 O   0  0  0  0  0  0
  -22.2101  -24.6696  -19.2640 C   0  0  0  0  0  0
  -21.7607  -23.8181  -18.2318 C   0  0  0  0  0  0
  -22.6399  -23.4129  -17.2103 C   0  0  0  0  0  0
  -23.9760  -23.8521  -17.2123 C   0  0  0  0  0  0
  -24.4252  -24.7257  -18.2175 C   0  0  0  0  0  0
  -23.5458  -25.1376  -19.2356 C   0  0  0  0  0  0
  -21.8893  -25.0301  -22.8118 O   0  0  0  0  0  0
  -24.0647  -21.3729  -22.0321 C   0  0  1  0  0  0
  -25.1545  -22.3254  -22.1734 N   0  0  0  0  0  0
  -26.4099  -22.1933  -21.5386 C   0  0  0  0  0  0
  -27.4744  -23.2402  -21.9935 C   0  0  0  0  0  0
  -27.9602  -23.9480  -21.0848 O   0  5  0  0  0  0
  -27.7267  -23.3168  -23.2175 O   0  0  0  0  0  0
  -26.6797  -21.2312  -20.6073 C   0  0  0  0  0  0
  -28.0444  -21.0220  -19.9249 C   0  0  0  0  0  0
  -29.0355  -20.4882  -20.8819 N   0  3  0  0  0  0
  -28.9189  -19.2061  -21.3144 C   0  0  0  0  0  0
  -29.7673  -18.7142  -22.3301 C   0  0  0  0  0  0
  -30.7522  -19.5625  -22.8862 C   0  0  0  0  0  0
  -31.5936  -19.1282  -24.0492 C   0  0  0  0  0  0
  -32.0046  -17.8617  -24.0403 N   0  0  0  0  0  0
  -31.9121  -19.9206  -24.9341 O   0  0  0  0  0  0
  -30.8852  -20.8675  -22.3706 C   0  0  0  0  0  0
  -30.0144  -21.3024  -21.3510 C   0  0  0  0  0  0
  -25.6267  -20.2338  -20.1315 C   0  0  0  0  0  0
  -23.9409  -20.8622  -20.2939 S   0  0  0  0  0  0
  -22.5615  -22.0649  -23.5009 H   0  0  0  0  0  0
  -22.3198  -22.7110  -20.7434 H   0  0  0  0  0  0
  -20.3248  -24.5029  -20.2796 H   0  0  0  0  0  0
  -20.7485  -23.4407  -18.2372 H   0  0  0  0  0  0
  -22.2999  -22.7449  -16.4353 H   0  0  0  0  0  0
  -24.6564  -23.5198  -16.4398 H   0  0  0  0  0  0
  -25.4522  -25.0603  -18.2134 H   0  0  0  0  0  0
  -23.9076  -25.7871  -20.0182 H   0  0  0  0  0  0
  -24.2236  -20.5088  -22.6816 H   0  0  0  0  0  0
  -28.4242  -21.9503  -19.4979 H   0  0  0  0  0  0
  -27.9885  -20.3119  -19.0964 H   0  0  0  0  0  0
  -28.1285  -18.6141  -20.8732 H   0  0  0  0  0  0
  -29.6231  -17.7053  -22.6934 H   0  0  0  0  0  0
  -31.7566  -17.2398  -23.2791 H   0  0  0  0  0  0
  -32.5768  -17.5203  -24.7954 H   0  0  0  0  0  0
  -31.6339  -21.5400  -22.7622 H   0  0  0  0  0  0
  -30.0646  -22.2953  -20.9269 H   0  0  0  0  0  0
  -25.7308  -19.3120  -20.7037 H   0  0  0  0  0  0
  -25.7786  -19.9805  -19.0819 H   0  0  0  0  0  0
  1  2  2  0  0  0
  2 19  1  0  0  0
  2  3  1  0  0  0
  3  4  1  0  0  0
  3 18  1  0  0  0
  3 37  1  0  0  0
  4  5  1  0  0  0
  4 38  1  0  0  0
  5  6  1  0  0  0
  5 17  2  0  0  0
  6  7  1  0  0  0
  6 11  1  0  0  0
  6 39  1  0  0  0
  7  8  2  0  0  0
  7  9  1  0  0  0
  7 10  2  0  0  0
 11 16  1  0  0  0
 11 12  2  0  0  0
 12 13  1  0  0  0
 12 40  1  0  0  0
 13 14  2  0  0  0
 13 41  1  0  0  0
 14 15  1  0  0  0
 14 42  1  0  0  0
 15 16  2  0  0  0
 15 43  1  0  0  0
 16 44  1  0  0  0
 18 36  1  0  0  0
 18 19  1  0  0  0
 18 45  1  0  0  0
 19 20  1  0  0  0
 20 21  1  0  0  0
 20 24  2  0  0  0
 21 22  1  0  0  0
 21 23  2  0  0  0
 24 25  1  0  0  0
 24 35  1  0  0  0
 25 26  1  0  0  0
 25 46  1  0  0  0
 25 47  1  0  0  0
 26 34  1  0  0  0
 26 27  2  0  0  0
 27 28  1  0  0  0
 27 48  1  0  0  0
 28 29  2  0  0  0
 28 49  1  0  0  0
 29 30  1  0  0  0
 29 33  1  0  0  0
 30 31  1  0  0  0
 30 32  2  0  0  0
 31 50  1  0  0  0
 31 51  1  0  0  0
 33 34  2  0  0  0
 33 52  1  0  0  0
 34 53  1  0  0  0
 35 36  1  0  0  0
 35 54  1  0  0  0
 35 55  1  0  0  0
M  CHG  3   9  -1  22  -1  26   1
M  END
> <s_m_entry_id>
27245

> <s_m_entry_name>
data_maestro.27

> <s_m_Source_Path>
C:\Users\olshana1\Git\GramNeg-Accumulation\Gram Negative Permeation - OmpF

> <s_m_Source_File>
data_maestro.csv

> <i_m_Source_File_Index>
27

> <s_m_job_name>
glide-dock_Nicaido_neutral

> <s_i_glide_gridfile>
3POX-grid

> <i_i_glide_lignum>
34

> <i_i_glide_rotatable_bonds>
9

> <r_i_docking_score>
-6.17309445213096

> <r_i_glide_ligand_efficiency>
-0.171474845892527

> <r_i_glide_ligand_efficiency_sa>
-0.566197465476214

> <r_i_glide_ligand_efficiency_ln>
-1.34680243171642

> <r_i_glide_gscore>
-6.17309445213096

> <r_i_glide_lipo>
0

> <r_i_glide_hbond>
-0.862923563501314

> <r_i_glide_metal>
0

> <r_i_glide_rewards>
0.00339743605300003

> <r_i_glide_evdw>
-27.6831550598145

> <r_i_glide_ecoul>
-24.8433895111084

> <r_i_glide_erotb>
0.364921022123239

> <r_i_glide_esite>
-0.567823167148901

> <r_i_glide_emodel>
-96.6314873421871

> <r_i_glide_energy>
-52.5265445709229

> <r_i_glide_einternal>
5.00806379318237

> <i_i_glide_confnum>
72

> <i_i_glide_posenum>
40

> <r_i_glide_eff_state_penalty>
0

> <r_glide_res:A132_vdw>
-1.96848981266189

> <r_glide_res:A132_coul>
-50.7374348608945

> <r_glide_res:A132_hbond>
-0.192868962038959

> <r_glide_res:A132_dist>
1.86559986471221

> <r_glide_res:A132_Eint>
-52.8987936355953

> <r_glide_res:A117_vdw>
-2.27746074848282

> <r_glide_res:A117_coul>
5.80032970629487

> <r_glide_res:A117_hbond>
0

> <r_glide_res:A117_dist>
2.54800909490642

> <r_glide_res:A117_Eint>
3.52286895781205

> <r_glide_res:A113_vdw>
-2.80617824240959

> <r_glide_res:A113_coul>
-6.75687943902425

> <r_glide_res:A113_hbond>
0

> <r_glide_res:A113_dist>
2.95801584704156

> <r_glide_res:A113_Eint>
-9.56305768143385

> <r_glide_res:A82_vdw>
-1.71982046063485

> <r_glide_res:A82_coul>
-46.7600027442605

> <r_glide_res:A82_hbond>
-0.196249807423794

> <r_glide_res:A82_dist>
2.06216291188048

> <r_glide_res:A82_Eint>
-48.6760730123192

> <r_glide_res:A42_vdw>
-1.33859579858389

> <r_glide_res:A42_coul>
-32.0730093019767

> <r_glide_res:A42_hbond>
0

> <r_glide_res:A42_dist>
3.07908823310166

> <r_glide_res:A42_Eint>
-33.4116051005606

> <r_glide_res:A16_vdw>
-0.344953605304321

> <r_glide_res:A16_coul>
-16.9072156600379

> <r_glide_res:A16_hbond>
0

> <r_glide_res:A16_dist>
3.78252271919032

> <r_glide_res:A16_Eint>
-17.2521692653422

> <s_m_source_file>
ligprep_Nicaido_neutral.maegz

> <i_m_source_file_index>
27

> <i_lp_mmshare_version>
58128

> <i_f3d_flags>
0

> <s_lp_Force_Field>
S-OPLS

> <r_lp_Energy>
54.611133

> <b_lp_Chiralities_Consistent>
1

> <s_lp_Variant>
Cefsulodin-1

> <s_epik_input>
W05IMl1DKD1PKWMoW2NIXVtjSF0xKVtjSF1bY0hdW24rXTFbQ0gyXUMoW0NIMl1TMik9QyhDKD1PKVtPSF0pTihbQ0BASF0yMylDKD1PKVtDQEBIXTNbTkhdQyg9TylbQ0BIXShTKD1PKSg9TylbT0hdKWM0W2NIXVtjSF1bY0hdW2NIXVtjSF00

> <s_epik_cmdline>
J2VwaWtfcHl0aG9uJywgJy1waHQnLCAnMC4wJywgJy1waCcsICc3LjQnLCAnLW50JywgJy1tYScsICc1MDAnLCAnLWltYWUnLCAnPGluZmlsZS5tYWU+JywgJy1vbWFlJywgJzxvdXRmaWxlLm1hZT4n

> <r_lp_tautomer_probability>
1

> <r_epik_Ionization_Penalty>
  0.0010

> <r_epik_Ionization_Penalty_Charging>
  0.0000

> <r_epik_Ionization_Penalty_Neutral>
  0.0010

> <r_epik_State_Penalty>
  0.0000

> <r_epik_Charging_Adjusted_Penalty>
1.59615623662622e-05

> <i_epik_Tot_Q>
-1

> <i_epik_Tot_abs_Q>
3

> <s_epik_Chemistry_Notes>
This compound contains an acetal/aminal-like group ( X-CH(R)-Y where X, Y are N, S, or O) that may be acid/base labile, releasing an aldehyde.

> <s_m_subgroup_title>
glide-dock_Nicaido_neutral_pv1

> <s_m_subgroupid>
glide-dock_Nicaido_neutral_pv1

> <b_m_subgroup_collapsed>
0

$$$$
Cefsulodin
                    3D
 Schrodinger Suite 2022-2.
 55 58  0  0  1  0            999 V2000
  -24.5217  -24.4490  -22.7687 O   0  0  0  0  0  0
  -24.3309  -23.3727  -22.2417 C   0  0  0  0  0  0
  -23.1172  -22.4620  -21.9311 C   0  0  2  0  0  0
  -22.3509  -22.8884  -20.7642 N   0  0  0  0  0  0
  -21.4397  -23.8710  -20.6766 C   0  0  0  0  0  0
  -20.9169  -24.1732  -19.2462 C   0  0  2  0  0  0
  -20.3935  -25.9491  -18.9639 S   0  0  0  0  0  0
  -20.7247  -26.2385  -17.5582 O   0  0  0  0  0  0
  -18.9417  -25.9502  -19.2145 O   0  5  0  0  0  0
  -21.1670  -26.7632  -19.9138 O   0  0  0  0  0  0
  -21.9280  -23.7287  -18.1802 C   0  0  0  0  0  0
  -23.2143  -24.3137  -18.1220 C   0  0  0  0  0  0
  -24.1803  -23.8146  -17.2291 C   0  0  0  0  0  0
  -23.8636  -22.7492  -16.3646 C   0  0  0  0  0  0
  -22.5738  -22.1867  -16.3912 C   0  0  0  0  0  0
  -21.6106  -22.6705  -17.2987 C   0  0  0  0  0  0
  -21.0272  -24.4707  -21.6704 O   0  0  0  0  0  0
  -24.1731  -21.4074  -21.5335 C   0  0  1  0  0  0
  -25.1690  -22.4638  -21.6055 N   0  0  0  0  0  0
  -26.4983  -22.3272  -21.1394 C   0  0  0  0  0  0
  -27.4814  -23.4676  -21.5957 C   0  0  0  0  0  0
  -27.4500  -23.8320  -22.7951 O   0  5  0  0  0  0
  -28.2112  -23.9495  -20.7061 O   0  0  0  0  0  0
  -26.9018  -21.2779  -20.3579 C   0  0  0  0  0  0
  -28.3391  -21.0469  -19.8563 C   0  0  0  0  0  0
  -29.1697  -20.4592  -20.9251 N   0  3  0  0  0  0
  -29.0390  -19.1421  -21.2143 C   0  0  0  0  0  0
  -29.7548  -18.5641  -22.2830 C   0  0  0  0  0  0
  -30.6164  -19.3664  -23.0631 C   0  0  0  0  0  0
  -31.2949  -18.8225  -24.2886 C   0  0  0  0  0  0
  -31.6912  -17.5498  -24.2402 N   0  0  0  0  0  0
  -31.4986  -19.5363  -25.2703 O   0  0  0  0  0  0
  -30.7658  -20.7250  -22.7069 C   0  0  0  0  0  0
  -30.0361  -21.2436  -21.6161 C   0  0  0  0  0  0
  -25.9526  -20.1778  -19.8816 C   0  0  0  0  0  0
  -24.2138  -20.6607  -19.8762 S   0  0  0  0  0  0
  -22.5121  -22.1606  -22.7866 H   0  0  0  0  0  0
  -22.6216  -22.4481  -19.8936 H   0  0  0  0  0  0
  -20.0100  -23.5860  -19.1092 H   0  0  0  0  0  0
  -23.4739  -25.1192  -18.7940 H   0  0  0  0  0  0
  -25.1703  -24.2456  -17.2135 H   0  0  0  0  0  0
  -24.6075  -22.3680  -15.6786 H   0  0  0  0  0  0
  -22.3309  -21.3705  -15.7260 H   0  0  0  0  0  0
  -20.6361  -22.2048  -17.3285 H   0  0  0  0  0  0
  -24.3450  -20.6576  -22.3089 H   0  0  0  0  0  0
  -28.8221  -21.9519  -19.4921 H   0  0  0  0  0  0
  -28.3670  -20.3546  -19.0128 H   0  0  0  0  0  0
  -28.3526  -18.5766  -20.6006 H   0  0  0  0  0  0
  -29.5966  -17.5197  -22.5128 H   0  0  0  0  0  0
  -31.5668  -16.9880  -23.4031 H   0  0  0  0  0  0
  -32.1308  -17.1404  -25.0497 H   0  0  0  0  0  0
  -31.4258  -21.3686  -23.2705 H   0  0  0  0  0  0
  -30.1120  -22.2737  -21.3013 H   0  0  0  0  0  0
  -26.0778  -19.2957  -20.5112 H   0  0  0  0  0  0
  -26.1969  -19.8828  -18.8592 H   0  0  0  0  0  0
  1  2  2  0  0  0
  2 19  1  0  0  0
  2  3  1  0  0  0
  3  4  1  0  0  0
  3 18  1  0  0  0
  3 37  1  0  0  0
  4  5  1  0  0  0
  4 38  1  0  0  0
  5  6  1  0  0  0
  5 17  2  0  0  0
  6  7  1  0  0  0
  6 11  1  0  0  0
  6 39  1  0  0  0
  7  8  2  0  0  0
  7  9  1  0  0  0
  7 10  2  0  0  0
 11 16  1  0  0  0
 11 12  2  0  0  0
 12 13  1  0  0  0
 12 40  1  0  0  0
 13 14  2  0  0  0
 13 41  1  0  0  0
 14 15  1  0  0  0
 14 42  1  0  0  0
 15 16  2  0  0  0
 15 43  1  0  0  0
 16 44  1  0  0  0
 18 36  1  0  0  0
 18 19  1  0  0  0
 18 45  1  0  0  0
 19 20  1  0  0  0
 20 21  1  0  0  0
 20 24  2  0  0  0
 21 22  1  0  0  0
 21 23  2  0  0  0
 24 25  1  0  0  0
 24 35  1  0  0  0
 25 26  1  0  0  0
 25 46  1  0  0  0
 25 47  1  0  0  0
 26 34  1  0  0  0
 26 27  2  0  0  0
 27 28  1  0  0  0
 27 48  1  0  0  0
 28 29  2  0  0  0
 28 49  1  0  0  0
 29 30  1  0  0  0
 29 33  1  0  0  0
 30 31  1  0  0  0
 30 32  2  0  0  0
 31 50  1  0  0  0
 31 51  1  0  0  0
 33 34  2  0  0  0
 33 52  1  0  0  0
 34 53  1  0  0  0
 35 36  1  0  0  0
 35 54  1  0  0  0
 35 55  1  0  0  0
M  CHG  3   9  -1  22  -1  26   1
M  END
> <s_m_entry_id>
27246

> <s_m_entry_name>
data_maestro.27

> <s_m_Source_Path>
C:\Users\olshana1\Git\GramNeg-Accumulation\Gram Negative Permeation - OmpF

> <s_m_Source_File>
data_maestro.csv

> <i_m_Source_File_Index>
27

> <s_m_job_name>
glide-dock_Nicaido_neutral

> <s_i_glide_gridfile>
3POX-grid

> <i_i_glide_lignum>
34

> <i_i_glide_rotatable_bonds>
9

> <r_i_docking_score>
-6.14678022549419

> <r_i_glide_ligand_efficiency>
-0.170743895152616

> <r_i_glide_ligand_efficiency_sa>
-0.563783919313388

> <r_i_glide_ligand_efficiency_ln>
-1.34106137839252

> <r_i_glide_gscore>
-6.14678022549419

> <r_i_glide_lipo>
0

> <r_i_glide_hbond>
-0.92

> <r_i_glide_metal>
0

> <r_i_glide_rewards>
0.00180926889380176

> <r_i_glide_evdw>
-28.5958499908447

> <r_i_glide_ecoul>
-23.9688320159912

> <r_i_glide_erotb>
0.364921022123239

> <r_i_glide_esite>
-0.568393214570313

> <r_i_glide_emodel>
-96.3457472922721

> <r_i_glide_energy>
-52.5646820068359

> <r_i_glide_einternal>
5.26744842529297

> <i_i_glide_confnum>
72

> <i_i_glide_posenum>
72

> <r_i_glide_eff_state_penalty>
0

> <r_glide_res:A132_vdw>
-0.864652744037382

> <r_glide_res:A132_coul>
-48.549743755971

> <r_glide_res:A132_hbond>
-0.2

> <r_glide_res:A132_dist>
1.76104597776017

> <r_glide_res:A132_Eint>
-49.6143965000084

> <r_glide_res:A117_vdw>
-2.03701380260715

> <r_glide_res:A117_coul>
5.15870403182721

> <r_glide_res:A117_hbond>
0

> <r_glide_res:A117_dist>
2.45620445579598

> <r_glide_res:A117_Eint>
3.12169022922007

> <r_glide_res:A113_vdw>
-2.81005763308232

> <r_glide_res:A113_coul>
-6.94181933831449

> <r_glide_res:A113_hbond>
0

> <r_glide_res:A113_dist>
2.58907024804776

> <r_glide_res:A113_Eint>
-9.75187697139681

> <r_glide_res:A82_vdw>
0.617567459279133

> <r_glide_res:A82_coul>
-45.4982219720312

> <r_glide_res:A82_hbond>
-0.2

> <r_glide_res:A82_dist>
1.68348972637667

> <r_glide_res:A82_Eint>
-45.080654512752

> <r_glide_res:A42_vdw>
-0.860998402095183

> <r_glide_res:A42_coul>
-25.6158550191952

> <r_glide_res:A42_hbond>
0

> <r_glide_res:A42_dist>
3.50876677447841

> <r_glide_res:A42_Eint>
-26.4768534212904

> <r_glide_res:A16_vdw>
-0.384494748685726

> <r_glide_res:A16_coul>
-14.7659031231532

> <r_glide_res:A16_hbond>
0

> <r_glide_res:A16_dist>
3.49450886383402

> <r_glide_res:A16_Eint>
-15.150397871839

> <s_m_source_file>
ligprep_Nicaido_neutral.maegz

> <i_m_source_file_index>
27

> <i_lp_mmshare_version>
58128

> <i_f3d_flags>
0

> <s_lp_Force_Field>
S-OPLS

> <r_lp_Energy>
54.611133

> <b_lp_Chiralities_Consistent>
1

> <s_lp_Variant>
Cefsulodin-1

> <s_epik_input>
W05IMl1DKD1PKWMoW2NIXVtjSF0xKVtjSF1bY0hdW24rXTFbQ0gyXUMoW0NIMl1TMik9QyhDKD1PKVtPSF0pTihbQ0BASF0yMylDKD1PKVtDQEBIXTNbTkhdQyg9TylbQ0BIXShTKD1PKSg9TylbT0hdKWM0W2NIXVtjSF1bY0hdW2NIXVtjSF00

> <s_epik_cmdline>
J2VwaWtfcHl0aG9uJywgJy1waHQnLCAnMC4wJywgJy1waCcsICc3LjQnLCAnLW50JywgJy1tYScsICc1MDAnLCAnLWltYWUnLCAnPGluZmlsZS5tYWU+JywgJy1vbWFlJywgJzxvdXRmaWxlLm1hZT4n

> <r_lp_tautomer_probability>
1

> <r_epik_Ionization_Penalty>
  0.0010

> <r_epik_Ionization_Penalty_Charging>
  0.0000

> <r_epik_Ionization_Penalty_Neutral>
  0.0010

> <r_epik_State_Penalty>
  0.0000

> <r_epik_Charging_Adjusted_Penalty>
1.59615623662622e-05

> <i_epik_Tot_Q>
-1

> <i_epik_Tot_abs_Q>
3

> <s_epik_Chemistry_Notes>
This compound contains an acetal/aminal-like group ( X-CH(R)-Y where X, Y are N, S, or O) that may be acid/base labile, releasing an aldehyde.

> <s_m_subgroup_title>
glide-dock_Nicaido_neutral_pv1

> <s_m_subgroupid>
glide-dock_Nicaido_neutral_pv1

> <b_m_subgroup_collapsed>
0

$$$$
Nocardicin B
                    3D
 Schrodinger Suite 2022-2.
 59 61  0  0  1  0            999 V2000
  -36.7692  -29.6489  -26.7995 O   0  0  0  0  0  0
  -36.8016  -28.4536  -26.6023 C   0  0  0  0  0  0
  -36.6067  -27.5068  -25.4110 C   0  0  2  0  0  0
  -37.0567  -26.4045  -26.3787 C   0  0  0  0  0  0
  -37.0850  -27.4127  -27.4470 N   0  0  0  0  0  0
  -37.4108  -27.3588  -28.8694 C   0  0  2  0  0  0
  -36.4014  -26.5617  -29.6659 C   0  0  0  0  0  0
  -36.6548  -26.2209  -31.0193 C   0  0  0  0  0  0
  -35.7226  -25.5142  -31.7994 C   0  0  0  0  0  0
  -34.4844  -25.1430  -31.2539 C   0  0  0  0  0  0
  -34.1895  -25.4809  -29.9233 C   0  0  0  0  0  0
  -35.1327  -26.1845  -29.1493 C   0  0  0  0  0  0
  -33.5689  -24.4767  -32.0129 O   0  0  0  0  0  0
  -38.8124  -26.7394  -29.0356 C   0  0  0  0  0  0
  -38.9412  -25.4991  -28.9362 O   0  5  0  0  0  0
  -39.7484  -27.5497  -29.2135 O   0  0  0  0  0  0
  -35.2084  -27.3456  -25.0258 N   0  0  0  0  0  0
  -34.7694  -26.3441  -24.2506 C   0  0  0  0  0  0
  -33.2659  -26.1335  -24.3029 C   0  0  0  0  0  0
  -32.8975  -24.6994  -24.2628 C   0  0  0  0  0  0
  -33.1779  -23.8783  -25.3760 C   0  0  0  0  0  0
  -32.8109  -22.5214  -25.3708 C   0  0  0  0  0  0
  -32.1597  -21.9511  -24.2606 C   0  0  0  0  0  0
  -31.8736  -22.7720  -23.1414 C   0  0  0  0  0  0
  -32.2387  -24.1358  -23.1467 C   0  0  0  0  0  0
  -31.8523  -20.6120  -24.3654 O   0  0  0  0  0  0
  -31.2583  -19.9186  -23.2742 C   0  0  0  0  0  0
  -29.7241  -20.0640  -23.2184 C   0  0  0  0  0  0
  -29.0131  -19.8322  -24.5797 C   0  0  2  0  0  0
  -28.7692  -21.1733  -25.3054 C   0  0  0  0  0  0
  -27.9120  -21.9492  -24.8187 O   0  5  0  0  0  0
  -29.4316  -21.4231  -26.3405 O   0  0  0  0  0  0
  -27.7141  -19.1490  -24.3926 N   0  3  0  0  0  0
  -32.3245  -26.9886  -24.4132 N   0  0  0  0  0  0
  -32.7690  -28.3454  -24.4130 O   0  0  0  0  0  0
  -35.5134  -25.5784  -23.6373 O   0  0  0  0  0  0
  -37.2940  -27.6540  -24.5769 H   0  0  0  0  0  0
  -38.0403  -25.9967  -26.1383 H   0  0  0  0  0  0
  -36.3391  -25.5990  -26.5404 H   0  0  0  0  0  0
  -37.4346  -28.3770  -29.2599 H   0  0  0  0  0  0
  -37.5898  -26.5041  -31.4810 H   0  0  0  0  0  0
  -35.9692  -25.2659  -32.8189 H   0  0  0  0  0  0
  -33.2349  -25.2148  -29.4962 H   0  0  0  0  0  0
  -34.8493  -26.4478  -28.1424 H   0  0  0  0  0  0
  -33.8059  -24.4336  -32.9313 H   0  0  0  0  0  0
  -34.5166  -27.9404  -25.4658 H   0  0  0  0  0  0
  -33.6772  -24.2866  -26.2434 H   0  0  0  0  0  0
  -33.0372  -21.9047  -26.2277 H   0  0  0  0  0  0
  -31.3793  -22.3771  -22.2668 H   0  0  0  0  0  0
  -32.0184  -24.7473  -22.2829 H   0  0  0  0  0  0
  -31.7209  -20.1816  -22.3222 H   0  0  0  0  0  0
  -31.4951  -18.8644  -23.4215 H   0  0  0  0  0  0
  -29.4678  -21.0402  -22.8061 H   0  0  0  0  0  0
  -29.3581  -19.3471  -22.4816 H   0  0  0  0  0  0
  -29.6220  -19.1756  -25.2038 H   0  0  0  0  0  0
  -27.3184  -18.9093  -25.2903 H   0  0  0  0  0  0
  -27.8288  -18.3056  -23.8440 H   0  0  0  0  0  0
  -32.1170  -28.7617  -24.9835 H   0  0  0  0  0  0
  -27.0880  -19.7795  -23.9130 H   0  0  0  0  0  0
  1  2  2  0  0  0
  2  5  1  0  0  0
  2  3  1  0  0  0
  3  4  1  0  0  0
  3 17  1  0  0  0
  3 37  1  0  0  0
  4  5  1  0  0  0
  4 38  1  0  0  0
  4 39  1  0  0  0
  5  6  1  0  0  0
  6  7  1  0  0  0
  6 14  1  0  0  0
  6 40  1  0  0  0
  7 12  1  0  0  0
  7  8  2  0  0  0
  8  9  1  0  0  0
  8 41  1  0  0  0
  9 10  2  0  0  0
  9 42  1  0  0  0
 10 11  1  0  0  0
 10 13  1  0  0  0
 11 12  2  0  0  0
 11 43  1  0  0  0
 12 44  1  0  0  0
 13 45  1  0  0  0
 14 15  1  0  0  0
 14 16  2  0  0  0
 17 18  1  0  0  0
 17 46  1  0  0  0
 18 19  1  0  0  0
 18 36  2  0  0  0
 19 20  1  0  0  0
 19 34  2  3  0  0
 20 25  1  0  0  0
 20 21  2  0  0  0
 21 22  1  0  0  0
 21 47  1  0  0  0
 22 23  2  0  0  0
 22 48  1  0  0  0
 23 24  1  0  0  0
 23 26  1  0  0  0
 24 25  2  0  0  0
 24 49  1  0  0  0
 25 50  1  0  0  0
 26 27  1  0  0  0
 27 28  1  0  0  0
 27 51  1  0  0  0
 27 52  1  0  0  0
 28 29  1  0  0  0
 28 53  1  0  0  0
 28 54  1  0  0  0
 29 30  1  0  0  0
 29 33  1  0  0  0
 29 55  1  0  0  0
 30 31  1  0  0  0
 30 32  2  0  0  0
 33 56  1  0  0  0
 33 57  1  0  0  0
 33 59  1  0  0  0
 34 35  1  0  0  0
 35 58  1  0  0  0
M  CHG  3  15  -1  31  -1  33   1
M  END
> <s_m_entry_id>
27247

> <s_m_entry_name>
data_maestro.29

> <s_m_Source_Path>
C:\Users\olshana1\Git\GramNeg-Accumulation\Gram Negative Permeation - OmpF

> <s_m_Source_File>
data_maestro.csv

> <i_m_Source_File_Index>
29

> <s_m_job_name>
glide-dock_Nicaido_neutral

> <s_i_glide_gridfile>
3POX-grid

> <i_i_glide_lignum>
37

> <i_i_glide_rotatable_bonds>
14

> <r_i_docking_score>
-6.14534469979305

> <r_i_glide_ligand_efficiency>
-0.170704019438696

> <r_i_glide_ligand_efficiency_sa>
-0.563652252607182

> <r_i_glide_ligand_efficiency_ln>
-1.34074818546796

> <r_i_glide_gscore>
-6.14534469979305

> <r_i_glide_lipo>
-0.39233659385031

> <r_i_glide_hbond>
-1.35735177769774

> <r_i_glide_metal>
0

> <r_i_glide_rewards>
0.00197055653291691

> <r_i_glide_evdw>
-25.5170288085938

> <r_i_glide_ecoul>
-23.5285148620605

> <r_i_glide_erotb>
0.900147327125679

> <r_i_glide_esite>
-0.492645542164827

> <r_i_glide_emodel>
-77.2725241270846

> <r_i_glide_energy>
-49.0455436706543

> <r_i_glide_einternal>
17.381763458252

> <i_i_glide_confnum>
66

> <i_i_glide_posenum>
380

> <r_i_glide_eff_state_penalty>
0

> <r_glide_res:A132_vdw>
-0.557543532499166

> <r_glide_res:A132_coul>
-15.4763044740284

> <r_glide_res:A132_hbond>
0

> <r_glide_res:A132_dist>
4.06429311262744

> <r_glide_res:A132_Eint>
-16.0338480065276

> <r_glide_res:A117_vdw>
-1.75093247643106

> <r_glide_res:A117_coul>
-11.3328119896982

> <r_glide_res:A117_hbond>
0

> <r_glide_res:A117_dist>
2.09353918896901

> <r_glide_res:A117_Eint>
-13.0837444661293

> <r_glide_res:A113_vdw>
-0.795414787851937

> <r_glide_res:A113_coul>
8.50664068356679

> <r_glide_res:A113_hbond>
0

> <r_glide_res:A113_dist>
3.77112240607462

> <r_glide_res:A113_Eint>
7.71122589571486

> <r_glide_res:A82_vdw>
-1.42515906250124

> <r_glide_res:A82_coul>
-25.5220925075252

> <r_glide_res:A82_hbond>
0

> <r_glide_res:A82_dist>
2.1490901249821

> <r_glide_res:A82_Eint>
-26.9472515700265

> <r_glide_res:A42_vdw>
-1.63882184996556

> <r_glide_res:A42_coul>
-38.1844563937275

> <r_glide_res:A42_hbond>
-0.248437418165875

> <r_glide_res:A42_dist>
2.00854867386031

> <r_glide_res:A42_Eint>
-40.0717156618589

> <r_glide_res:A16_vdw>
-2.30043175769451

> <r_glide_res:A16_coul>
-36.7711213784324

> <r_glide_res:A16_hbond>
-0.2

> <r_glide_res:A16_dist>
1.99382310591735

> <r_glide_res:A16_Eint>
-39.2715531361269

> <s_m_source_file>
ligprep_Nicaido_neutral.maegz

> <i_m_source_file_index>
29

> <i_lp_mmshare_version>
58128

> <i_f3d_flags>
0

> <s_lp_Force_Field>
S-OPLS

> <r_lp_Energy>
65.715273

> <b_lp_Chiralities_Consistent>
1

> <s_lp_Variant>
Nocardicin B-2

> <s_epik_input>
W2NIXTFbY0hdYyhbT0hdKVtjSF1bY0hdYzFbQ0BIXShDKD1PKVtPSF0pTjJbQ0gyXVtDQEBIXShDMj1PKVtOSF1DKD1PKS9DKD1OL1tPSF0pYzNbY0hdW2NIXWMoW2NIXVtjSF0zKU9bQ0gyXVtDSDJdW0NAQEhdKFtOSDJdKUMoPU8pW09IXQ==

> <s_epik_cmdline>
J2VwaWtfcHl0aG9uJywgJy1waHQnLCAnMC4wJywgJy1waCcsICc3LjQnLCAnLW50JywgJy1tYScsICc1MDAnLCAnLWltYWUnLCAnPGluZmlsZS5tYWU+JywgJy1vbWFlJywgJzxvdXRmaWxlLm1hZT4n

> <r_lp_tautomer_probability>
1

> <r_epik_Ionization_Penalty>
  0.0116

> <r_epik_Ionization_Penalty_Charging>
  0.0086

> <r_epik_Ionization_Penalty_Neutral>
  0.0030

> <r_epik_State_Penalty>
  0.0000

> <r_epik_Charging_Adjusted_Penalty>
0.0085560600321308

> <i_epik_Tot_Q>
-1

> <i_epik_Tot_abs_Q>
3

> <s_epik_Chemistry_Notes>
This compound has an imine and may undergo hydrolysis.

> <s_m_subgroup_title>
glide-dock_Nicaido_neutral_pv1

> <s_m_subgroupid>
glide-dock_Nicaido_neutral_pv1

> <b_m_subgroup_collapsed>
0

$$$$
Imipenem
                    3D
 Schrodinger Suite 2022-2.
 37 38  0  0  1  0            999 V2000
  -22.3862  -18.9368  -27.0371 C   0  0  0  0  0  0
  -22.2411  -20.4433  -26.8004 C   0  0  2  0  0  0
  -22.8335  -20.8904  -25.4589 C   0  0  1  0  0  0
  -24.3623  -20.7790  -25.2165 C   0  0  2  0  0  0
  -25.0548  -20.1523  -23.9882 C   0  0  0  0  0  0
  -25.5545  -21.3525  -23.2098 C   0  0  0  0  0  0
  -26.5568  -21.2015  -21.7443 S   0  0  0  0  0  0
  -26.9739  -19.4450  -21.5855 C   0  0  0  0  0  0
  -27.7091  -19.1550  -20.2627 C   0  0  0  0  0  0
  -29.1686  -19.0802  -20.4136 N   0  3  0  0  0  0
  -29.7725  -18.1774  -21.2023 C   0  0  0  0  0  0
  -31.1052  -18.0234  -21.2134 N   0  0  0  0  0  0
  -25.0635  -22.4902  -23.7159 C   0  0  0  0  0  0
  -24.2988  -22.1784  -24.8325 N   0  0  0  0  0  0
  -23.0603  -22.4290  -25.3807 C   0  0  0  0  0  0
  -22.4671  -23.4498  -25.6594 O   0  0  0  0  0  0
  -25.1685  -23.9495  -23.1594 C   0  0  0  0  0  0
  -26.1415  -24.2063  -22.4129 O   0  5  0  0  0  0
  -24.3272  -24.7828  -23.5686 O   0  0  0  0  0  0
  -20.8634  -20.7571  -26.8657 O   0  0  0  0  0  0
  -23.4340  -18.6352  -27.0283 H   0  0  0  0  0  0
  -21.9682  -18.6599  -28.0059 H   0  0  0  0  0  0
  -21.8704  -18.3572  -26.2701 H   0  0  0  0  0  0
  -22.7346  -20.9686  -27.6194 H   0  0  0  0  0  0
  -22.2810  -20.4920  -24.6059 H   0  0  0  0  0  0
  -24.9334  -20.6798  -26.1430 H   0  0  0  0  0  0
  -24.3538  -19.5794  -23.3810 H   0  0  0  0  0  0
  -25.8741  -19.4942  -24.2790 H   0  0  0  0  0  0
  -26.0540  -18.8608  -21.6225 H   0  0  0  0  0  0
  -27.5707  -19.1496  -22.4481 H   0  0  0  0  0  0
  -27.4523  -19.8857  -19.4944 H   0  0  0  0  0  0
  -27.3805  -18.1870  -19.8854 H   0  0  0  0  0  0
  -29.1707  -17.5493  -21.8444 H   0  0  0  0  0  0
  -31.6665  -18.5844  -20.5835 H   0  0  0  0  0  0
  -31.5234  -17.2532  -21.7280 H   0  0  0  0  0  0
  -20.7697  -21.6906  -27.0099 H   0  0  0  0  0  0
  -29.7537  -19.5495  -19.7025 H   0  0  0  0  0  0
  1  2  1  0  0  0
  1 21  1  0  0  0
  1 22  1  0  0  0
  1 23  1  0  0  0
  2  3  1  0  0  0
  2 20  1  0  0  0
  2 24  1  0  0  0
  3 15  1  0  0  0
  3  4  1  0  0  0
  3 25  1  0  0  0
  4 14  1  0  0  0
  4  5  1  0  0  0
  4 26  1  0  0  0
  5  6  1  0  0  0
  5 27  1  0  0  0
  5 28  1  0  0  0
  6  7  1  0  0  0
  6 13  2  0  0  0
  7  8  1  0  0  0
  8  9  1  0  0  0
  8 29  1  0  0  0
  8 30  1  0  0  0
  9 10  1  0  0  0
  9 31  1  0  0  0
  9 32  1  0  0  0
 10 11  2  3  0  0
 10 37  1  0  0  0
 11 12  1  0  0  0
 11 33  1  0  0  0
 12 34  1  0  0  0
 12 35  1  0  0  0
 13 14  1  0  0  0
 13 17  1  0  0  0
 14 15  1  0  0  0
 15 16  2  0  0  0
 17 18  1  0  0  0
 17 19  2  0  0  0
 20 36  1  0  0  0
M  CHG  2  10   1  18  -1
M  END
> <s_m_entry_id>
27248

> <s_m_entry_name>
data_maestro.12

> <s_m_Source_Path>
C:\Users\olshana1\Git\GramNeg-Accumulation\Gram Negative Permeation - OmpF

> <s_m_Source_File>
data_maestro.csv

> <i_m_Source_File_Index>
12

> <s_m_job_name>
glide-dock_Nicaido_neutral

> <s_i_glide_gridfile>
3POX-grid

> <i_i_glide_lignum>
16

> <i_i_glide_rotatable_bonds>
7

> <r_i_docking_score>
-6.12964373537584

> <r_i_glide_ligand_efficiency>
-0.306482186768792

> <r_i_glide_ligand_efficiency_sa>
-0.831920646107002

> <r_i_glide_ligand_efficiency_ln>
-1.5340476577836

> <r_i_glide_gscore>
-6.12964373537584

> <r_i_glide_lipo>
-0.153373246538114

> <r_i_glide_hbond>
-0.45026094510404

> <r_i_glide_metal>
0

> <r_i_glide_rewards>
-1.86409004326997

> <r_i_glide_evdw>
-17.3825435638428

> <r_i_glide_ecoul>
-22.6910018920898

> <r_i_glide_erotb>
1.02473259195513

> <r_i_glide_esite>
-0.413874630413223

> <r_i_glide_emodel>
-75.3317991204893

> <r_i_glide_energy>
-40.0735454559326

> <r_i_glide_einternal>
3.90949296951294

> <i_i_glide_confnum>
58

> <i_i_glide_posenum>
111

> <r_i_glide_eff_state_penalty>
0

> <r_glide_res:A132_vdw>
-0.154876362029339

> <r_glide_res:A132_coul>
-23.8398489059794

> <r_glide_res:A132_hbond>
-0.0833704366482331

> <r_glide_res:A132_dist>
2.14332703944288

> <r_glide_res:A132_Eint>
-24.078095704657

> <r_glide_res:A117_vdw>
-3.40740228545677

> <r_glide_res:A117_coul>
-11.1957520841709

> <r_glide_res:A117_hbond>
0

> <r_glide_res:A117_dist>
2.18765034812514

> <r_glide_res:A117_Eint>
-14.6031543696277

> <r_glide_res:A113_vdw>
2.83949155307914

> <r_glide_res:A113_coul>
-31.6746495099957

> <r_glide_res:A113_hbond>
-0.202419257702531

> <r_glide_res:A113_dist>
1.57666088779009

> <r_glide_res:A113_Eint>
-29.0375772146191

> <r_glide_res:A82_vdw>
1.4703011515879

> <r_glide_res:A82_coul>
-27.4973703569624

> <r_glide_res:A82_hbond>
-0.164471250753276

> <r_glide_res:A82_dist>
1.93221556883569

> <r_glide_res:A82_Eint>
-26.1915404561278

> <r_glide_res:A42_vdw>
-1.87086126392908

> <r_glide_res:A42_coul>
-14.1954522826506

> <r_glide_res:A42_hbond>
0

> <r_glide_res:A42_dist>
2.94961819170876

> <r_glide_res:A42_Eint>
-16.0663135465797

> <r_glide_res:A16_vdw>
-0.132986326221677

> <r_glide_res:A16_coul>
1.10424885580499

> <r_glide_res:A16_hbond>
0

> <r_glide_res:A16_dist>
5.73238879148384

> <r_glide_res:A16_Eint>
0.971262529583311

> <s_m_source_file>
ligprep_Nicaido_neutral.maegz

> <i_m_source_file_index>
12

> <i_lp_mmshare_version>
58128

> <i_f3d_flags>
0

> <s_lp_Force_Field>
S-OPLS

> <r_lp_Energy>
18.714001

> <b_lp_Chiralities_Consistent>
1

> <s_lp_Variant>
Imipenem-1

> <s_epik_input>
W0NIM11bQ0BASF0oW09IXSlbQ0BASF0xQyg9TylOKFtDQEhdMTIpQyhDKD1PKVtPSF0pPUMoW0NIMl0yKVNbQ0gyXVtDSDJdL049W0NIXS9bTkgyXQ==

> <s_epik_cmdline>
J2VwaWtfcHl0aG9uJywgJy1waHQnLCAnMC4wJywgJy1waCcsICc3LjQnLCAnLW50JywgJy1tYScsICc1MDAnLCAnLWltYWUnLCAnPGluZmlsZS5tYWU+JywgJy1vbWFlJywgJzxvdXRmaWxlLm1hZT4n

> <r_lp_tautomer_probability>
1

> <r_epik_Ionization_Penalty>
  0.0001

> <r_epik_Ionization_Penalty_Charging>
  0.0001

> <r_epik_Ionization_Penalty_Neutral>
  0.0000

> <r_epik_State_Penalty>
  0.0000

> <r_epik_Charging_Adjusted_Penalty>
9.5675940864495e-05

> <i_epik_Tot_Q>
0

> <i_epik_Tot_abs_Q>
2

> <s_epik_Chemistry_Notes>
This compound has an imine and may undergo hydrolysis.

> <s_m_subgroup_title>
glide-dock_Nicaido_neutral_pv1

> <s_m_subgroupid>
glide-dock_Nicaido_neutral_pv1

> <b_m_subgroup_collapsed>
0

$$$$
Imipenem
                    3D
 Schrodinger Suite 2022-2.
 37 38  0  0  1  0            999 V2000
  -22.2449  -20.8669  -26.5247 C   0  0  0  0  0  0
  -22.9252  -22.1906  -26.1481 C   0  0  2  0  0  0
  -23.3472  -22.2409  -24.6743 C   0  0  1  0  0  0
  -24.4561  -21.3041  -24.1439 C   0  0  2  0  0  0
  -24.3953  -20.5306  -22.8133 C   0  0  0  0  0  0
  -25.3892  -21.2562  -21.9427 C   0  0  0  0  0  0
  -25.7675  -20.6295  -20.3235 S   0  0  0  0  0  0
  -27.5809  -20.5230  -20.2357 C   0  0  0  0  0  0
  -28.1217  -19.3127  -21.0072 C   0  0  0  0  0  0
  -29.5690  -19.1606  -20.8133 N   0  3  0  0  0  0
  -30.3784  -18.3229  -21.4749 C   0  0  0  0  0  0
  -29.9705  -17.5496  -22.4890 N   0  0  0  0  0  0
  -25.7871  -22.3953  -22.5208 C   0  0  0  0  0  0
  -25.1982  -22.5016  -23.7760 N   0  0  0  0  0  0
  -24.3326  -23.4001  -24.3692 C   0  0  0  0  0  0
  -24.3687  -24.6060  -24.5129 O   0  0  0  0  0  0
  -26.7282  -23.5141  -21.9936 C   0  0  0  0  0  0
  -27.5689  -23.9496  -22.8134 O   0  5  0  0  0  0
  -26.5066  -23.9495  -20.8424 O   0  0  0  0  0  0
  -22.0261  -23.2539  -26.3970 O   0  0  0  0  0  0
  -22.9110  -20.0184  -26.3614 H   0  0  0  0  0  0
  -21.9587  -20.8568  -27.5772 H   0  0  0  0  0  0
  -21.3452  -20.7022  -25.9308 H   0  0  0  0  0  0
  -23.7915  -22.3265  -26.7978 H   0  0  0  0  0  0
  -22.4902  -22.2253  -23.9984 H   0  0  0  0  0  0
  -24.9894  -20.7772  -24.9379 H   0  0  0  0  0  0
  -23.4054  -20.5743  -22.3572 H   0  0  0  0  0  0
  -24.6745  -19.4833  -22.9354 H   0  0  0  0  0  0
  -28.0313  -21.4472  -20.5947 H   0  0  0  0  0  0
  -27.8548  -20.4334  -19.1828 H   0  0  0  0  0  0
  -27.6321  -18.3992  -20.6672 H   0  0  0  0  0  0
  -27.9065  -19.4203  -22.0704 H   0  0  0  0  0  0
  -31.4110  -18.2525  -21.1516 H   0  0  0  0  0  0
  -28.9791  -17.4882  -22.7083 H   0  0  0  0  0  0
  -30.6029  -16.8279  -22.8208 H   0  0  0  0  0  0
  -21.6445  -23.1502  -27.2681 H   0  0  0  0  0  0
  -29.9724  -19.5495  -19.9404 H   0  0  0  0  0  0
  1  2  1  0  0  0
  1 21  1  0  0  0
  1 22  1  0  0  0
  1 23  1  0  0  0
  2  3  1  0  0  0
  2 20  1  0  0  0
  2 24  1  0  0  0
  3 15  1  0  0  0
  3  4  1  0  0  0
  3 25  1  0  0  0
  4 14  1  0  0  0
  4  5  1  0  0  0
  4 26  1  0  0  0
  5  6  1  0  0  0
  5 27  1  0  0  0
  5 28  1  0  0  0
  6  7  1  0  0  0
  6 13  2  0  0  0
  7  8  1  0  0  0
  8  9  1  0  0  0
  8 29  1  0  0  0
  8 30  1  0  0  0
  9 10  1  0  0  0
  9 31  1  0  0  0
  9 32  1  0  0  0
 10 11  2  3  0  0
 10 37  1  0  0  0
 11 12  1  0  0  0
 11 33  1  0  0  0
 12 34  1  0  0  0
 12 35  1  0  0  0
 13 14  1  0  0  0
 13 17  1  0  0  0
 14 15  1  0  0  0
 15 16  2  0  0  0
 17 18  1  0  0  0
 17 19  2  0  0  0
 20 36  1  0  0  0
M  CHG  2  10   1  18  -1
M  END
> <s_m_entry_id>
27249

> <s_m_entry_name>
data_maestro.12

> <s_m_Source_Path>
C:\Users\olshana1\Git\GramNeg-Accumulation\Gram Negative Permeation - OmpF

> <s_m_Source_File>
data_maestro.csv

> <i_m_Source_File_Index>
12

> <s_m_job_name>
glide-dock_Nicaido_neutral

> <s_i_glide_gridfile>
3POX-grid

> <i_i_glide_lignum>
17

> <i_i_glide_rotatable_bonds>
7

> <r_i_docking_score>
-6.12585421414577

> <r_i_glide_ligand_efficiency>
-0.306292710707289

> <r_i_glide_ligand_efficiency_sa>
-0.831406328948248

> <r_i_glide_ligand_efficiency_ln>
-1.53309926560649

> <r_i_glide_gscore>
-6.12585421414577

> <r_i_glide_lipo>
-0.0894864281093905

> <r_i_glide_hbond>
-0.616272638218329

> <r_i_glide_metal>
0

> <r_i_glide_rewards>
-1.36808809090909

> <r_i_glide_evdw>
-12.5326461791992

> <r_i_glide_ecoul>
-27.2595748901367

> <r_i_glide_erotb>
1.02473259195513

> <r_i_glide_esite>
-0.450107339904129

> <r_i_glide_emodel>
-72.9704158707375

> <r_i_glide_energy>
-39.7922210693359

> <r_i_glide_einternal>
4.5752592086792

> <i_i_glide_confnum>
49

> <i_i_glide_posenum>
69

> <r_i_glide_eff_state_penalty>
0

> <r_glide_res:A132_vdw>
-0.581930420311842

> <r_glide_res:A132_coul>
-31.5873280091833

> <r_glide_res:A132_hbond>
-0.206691083532195

> <r_glide_res:A132_dist>
1.85903214326018

> <r_glide_res:A132_Eint>
-32.3759495130273

> <r_glide_res:A117_vdw>
-0.228384874817699

> <r_glide_res:A117_coul>
-13.9523082777521

> <r_glide_res:A117_hbond>
0

> <r_glide_res:A117_dist>
1.87233096019519

> <r_glide_res:A117_Eint>
-14.1806931525698

> <r_glide_res:A113_vdw>
1.73038798837159

> <r_glide_res:A113_coul>
-23.210920576297

> <r_glide_res:A113_hbond>
-0.2

> <r_glide_res:A113_dist>
1.60991921017243

> <r_glide_res:A113_Eint>
-21.6805325879254

> <r_glide_res:A82_vdw>
2.47301111552852

> <r_glide_res:A82_coul>
-34.8805323443505

> <r_glide_res:A82_hbond>
-0.209581554686134

> <r_glide_res:A82_dist>
1.59907420760873

> <r_glide_res:A82_Eint>
-32.6171027835081

> <r_glide_res:A42_vdw>
-1.69325447610878

> <r_glide_res:A42_coul>
-12.4052357549079

> <r_glide_res:A42_hbond>
0

> <r_glide_res:A42_dist>
2.20348046024736

> <r_glide_res:A42_Eint>
-14.0984902310167

> <r_glide_res:A16_vdw>
-0.124174811996464

> <r_glide_res:A16_coul>
0.799269690006913

> <r_glide_res:A16_hbond>
0

> <r_glide_res:A16_dist>
6.19630468878497

> <r_glide_res:A16_Eint>
0.67509487801045

> <s_m_source_file>
ligprep_Nicaido_neutral.maegz

> <i_m_source_file_index>
12

> <i_lp_mmshare_version>
58128

> <i_f3d_flags>
0

> <s_lp_Force_Field>
S-OPLS

> <r_lp_Energy>
22.988374

> <b_lp_Chiralities_Consistent>
1

> <s_lp_Variant>
Imipenem-2

> <s_epik_input>
W0NIM11bQ0BASF0oW09IXSlbQ0BASF0xQyg9TylOKFtDQEhdMTIpQyhDKD1PKVtPSF0pPUMoW0NIMl0yKVNbQ0gyXVtDSDJdL049W0NIXS9bTkgyXQ==

> <s_epik_cmdline>
J2VwaWtfcHl0aG9uJywgJy1waHQnLCAnMC4wJywgJy1waCcsICc3LjQnLCAnLW50JywgJy1tYScsICc1MDAnLCAnLWltYWUnLCAnPGluZmlsZS5tYWU+JywgJy1vbWFlJywgJzxvdXRmaWxlLm1hZT4n

> <r_lp_tautomer_probability>
1

> <r_epik_Ionization_Penalty>
  0.0001

> <r_epik_Ionization_Penalty_Charging>
  0.0001

> <r_epik_Ionization_Penalty_Neutral>
  0.0000

> <r_epik_State_Penalty>
  0.0000

> <r_epik_Charging_Adjusted_Penalty>
9.5675940864495e-05

> <i_epik_Tot_Q>
0

> <i_epik_Tot_abs_Q>
2

> <s_epik_Chemistry_Notes>
This compound has an imine and may undergo hydrolysis.

> <s_m_subgroup_title>
glide-dock_Nicaido_neutral_pv1

> <s_m_subgroupid>
glide-dock_Nicaido_neutral_pv1

> <b_m_subgroup_collapsed>
0

$$$$
Imipenem
                    3D
 Schrodinger Suite 2022-2.
 37 38  0  0  1  0            999 V2000
  -25.8023  -20.2149  -20.1575 C   0  0  0  0  0  0
  -26.4776  -21.2992  -19.2981 C   0  0  2  0  0  0
  -27.7659  -21.9178  -19.8763 C   0  0  1  0  0  0
  -28.6935  -21.1493  -20.8415 C   0  0  2  0  0  0
  -30.1967  -21.3675  -21.0202 C   0  0  0  0  0  0
  -30.3150  -21.7292  -22.4683 C   0  0  0  0  0  0
  -31.8637  -21.6080  -23.3345 S   0  0  0  0  0  0
  -33.1113  -21.1167  -22.0886 C   0  0  0  0  0  0
  -33.0782  -19.6421  -21.6133 C   0  0  0  0  0  0
  -32.2402  -18.7496  -22.4348 N   0  3  0  0  0  0
  -31.2352  -17.9619  -22.0027 C   0  0  0  0  0  0
  -30.7689  -17.9496  -20.7439 N   0  0  0  0  0  0
  -29.1252  -22.1287  -22.9303 C   0  0  0  0  0  0
  -28.1828  -21.9885  -21.9123 N   0  0  0  0  0  0
  -27.4779  -22.8449  -21.0863 C   0  0  0  0  0  0
  -27.0035  -23.9496  -21.2580 O   0  0  0  0  0  0
  -28.7282  -22.7096  -24.3171 C   0  0  0  0  0  0
  -29.5931  -22.7496  -25.2167 O   0  5  0  0  0  0
  -27.5646  -23.1496  -24.4134 O   0  0  0  0  0  0
  -26.7386  -20.7496  -18.0243 O   0  0  0  0  0  0
  -25.5806  -20.5775  -21.1613 H   0  0  0  0  0  0
  -24.8586  -19.9009  -19.7105 H   0  0  0  0  0  0
  -26.4228  -19.3232  -20.2529 H   0  0  0  0  0  0
  -25.7506  -22.0958  -19.1338 H   0  0  0  0  0  0
  -28.3550  -22.4239  -19.1097 H   0  0  0  0  0  0
  -28.3953  -20.1149  -21.0147 H   0  0  0  0  0  0
  -30.5807  -22.1857  -20.4134 H   0  0  0  0  0  0
  -30.7512  -20.4701  -20.8134 H   0  0  0  0  0  0
  -34.0920  -21.3214  -22.5183 H   0  0  0  0  0  0
  -33.0222  -21.7822  -21.2291 H   0  0  0  0  0  0
  -34.0924  -19.2419  -21.5983 H   0  0  0  0  0  0
  -32.7457  -19.6047  -20.5770 H   0  0  0  0  0  0
  -30.7689  -17.2924  -22.7180 H   0  0  0  0  0  0
  -30.9962  -18.6776  -20.0608 H   0  0  0  0  0  0
  -30.0586  -17.2652  -20.4702 H   0  0  0  0  0  0
  -27.1727  -19.9071  -18.1100 H   0  0  0  0  0  0
  -32.4895  -18.6844  -23.4113 H   0  0  0  0  0  0
  1  2  1  0  0  0
  1 21  1  0  0  0
  1 22  1  0  0  0
  1 23  1  0  0  0
  2  3  1  0  0  0
  2 20  1  0  0  0
  2 24  1  0  0  0
  3 15  1  0  0  0
  3  4  1  0  0  0
  3 25  1  0  0  0
  4 14  1  0  0  0
  4  5  1  0  0  0
  4 26  1  0  0  0
  5  6  1  0  0  0
  5 27  1  0  0  0
  5 28  1  0  0  0
  6  7  1  0  0  0
  6 13  2  0  0  0
  7  8  1  0  0  0
  8  9  1  0  0  0
  8 29  1  0  0  0
  8 30  1  0  0  0
  9 10  1  0  0  0
  9 31  1  0  0  0
  9 32  1  0  0  0
 10 11  2  3  0  0
 10 37  1  0  0  0
 11 12  1  0  0  0
 11 33  1  0  0  0
 12 34  1  0  0  0
 12 35  1  0  0  0
 13 14  1  0  0  0
 13 17  1  0  0  0
 14 15  1  0  0  0
 15 16  2  0  0  0
 17 18  1  0  0  0
 17 19  2  0  0  0
 20 36  1  0  0  0
M  CHG  2  10   1  18  -1
M  END
> <s_m_entry_id>
27250

> <s_m_entry_name>
data_maestro.12

> <s_m_Source_Path>
C:\Users\olshana1\Git\GramNeg-Accumulation\Gram Negative Permeation - OmpF

> <s_m_Source_File>
data_maestro.csv

> <i_m_Source_File_Index>
12

> <s_m_job_name>
glide-dock_Nicaido_neutral

> <s_i_glide_gridfile>
3POX-grid

> <i_i_glide_lignum>
17

> <i_i_glide_rotatable_bonds>
7

> <r_i_docking_score>
-6.11935388068894

> <r_i_glide_ligand_efficiency>
-0.305967694034447

> <r_i_glide_ligand_efficiency_sa>
-0.830524097966681

> <r_i_glide_ligand_efficiency_ln>
-1.53147244653759

> <r_i_glide_gscore>
-6.11935388068894

> <r_i_glide_lipo>
0

> <r_i_glide_hbond>
-1.09795319968056

> <r_i_glide_metal>
0

> <r_i_glide_rewards>
-1.36808809090909

> <r_i_glide_evdw>
-13.0229682922363

> <r_i_glide_ecoul>
-23.9512634277344

> <r_i_glide_erotb>
1.02473259195513

> <r_i_glide_esite>
-0.434207253282446

> <r_i_glide_emodel>
-68.6728029774254

> <r_i_glide_energy>
-36.9742317199707

> <r_i_glide_einternal>
7.45923852920532

> <i_i_glide_confnum>
232

> <i_i_glide_posenum>
68

> <r_i_glide_eff_state_penalty>
0

> <r_glide_res:A132_vdw>
-0.843255854804788

> <r_glide_res:A132_coul>
-17.228778215237

> <r_glide_res:A132_hbond>
-0.194774214558189

> <r_glide_res:A132_dist>
2.09031154668864

> <r_glide_res:A132_Eint>
-18.2668082846

> <r_glide_res:A117_vdw>
-1.5325761708136

> <r_glide_res:A117_coul>
0.884292840050371

> <r_glide_res:A117_hbond>
0

> <r_glide_res:A117_dist>
3.3521480108523

> <r_glide_res:A117_Eint>
-0.648283330763228

> <r_glide_res:A113_vdw>
-2.06614224877454

> <r_glide_res:A113_coul>
-28.2681986165884

> <r_glide_res:A113_hbond>
-0.2

> <r_glide_res:A113_dist>
1.85070235846003

> <r_glide_res:A113_Eint>
-30.5343408653629

> <r_glide_res:A82_vdw>
-1.5055240152618

> <r_glide_res:A82_coul>
-26.3733443304929

> <r_glide_res:A82_hbond>
-0.0402922061012085

> <r_glide_res:A82_dist>
2.27801650557715

> <r_glide_res:A82_Eint>
-27.919160551856

> <r_glide_res:A42_vdw>
2.5486572354244

> <r_glide_res:A42_coul>
-37.2745990894658

> <r_glide_res:A42_hbond>
-0.342886779021164

> <r_glide_res:A42_dist>
1.75678965390985

> <r_glide_res:A42_Eint>
-35.0688286330625

> <r_glide_res:A16_vdw>
-0.459720722184547

> <r_glide_res:A16_coul>
-12.4491650540749

> <r_glide_res:A16_hbond>
0

> <r_glide_res:A16_dist>
3.38233777656989

> <r_glide_res:A16_Eint>
-12.9088857762594

> <s_m_source_file>
ligprep_Nicaido_neutral.maegz

> <i_m_source_file_index>
12

> <i_lp_mmshare_version>
58128

> <i_f3d_flags>
0

> <s_lp_Force_Field>
S-OPLS

> <r_lp_Energy>
22.988374

> <b_lp_Chiralities_Consistent>
1

> <s_lp_Variant>
Imipenem-2

> <s_epik_input>
W0NIM11bQ0BASF0oW09IXSlbQ0BASF0xQyg9TylOKFtDQEhdMTIpQyhDKD1PKVtPSF0pPUMoW0NIMl0yKVNbQ0gyXVtDSDJdL049W0NIXS9bTkgyXQ==

> <s_epik_cmdline>
J2VwaWtfcHl0aG9uJywgJy1waHQnLCAnMC4wJywgJy1waCcsICc3LjQnLCAnLW50JywgJy1tYScsICc1MDAnLCAnLWltYWUnLCAnPGluZmlsZS5tYWU+JywgJy1vbWFlJywgJzxvdXRmaWxlLm1hZT4n

> <r_lp_tautomer_probability>
1

> <r_epik_Ionization_Penalty>
  0.0001

> <r_epik_Ionization_Penalty_Charging>
  0.0001

> <r_epik_Ionization_Penalty_Neutral>
  0.0000

> <r_epik_State_Penalty>
  0.0000

> <r_epik_Charging_Adjusted_Penalty>
9.5675940864495e-05

> <i_epik_Tot_Q>
0

> <i_epik_Tot_abs_Q>
2

> <s_epik_Chemistry_Notes>
This compound has an imine and may undergo hydrolysis.

> <s_m_subgroup_title>
glide-dock_Nicaido_neutral_pv1

> <s_m_subgroupid>
glide-dock_Nicaido_neutral_pv1

> <b_m_subgroup_collapsed>
0

$$$$
Imipenem
                    3D
 Schrodinger Suite 2022-2.
 37 38  0  0  1  0            999 V2000
  -21.5433  -21.2361  -26.0340 C   0  0  0  0  0  0
  -22.3807  -22.5035  -25.8179 C   0  0  2  0  0  0
  -23.0064  -22.5657  -24.4211 C   0  0  1  0  0  0
  -24.0550  -21.5151  -23.9910 C   0  0  2  0  0  0
  -24.0199  -20.7469  -22.6568 C   0  0  0  0  0  0
  -25.0908  -21.4183  -21.8380 C   0  0  0  0  0  0
  -25.4627  -20.8202  -20.2058 S   0  0  0  0  0  0
  -27.2733  -20.6613  -20.1318 C   0  0  0  0  0  0
  -27.7096  -19.2159  -20.3819 C   0  0  0  0  0  0
  -29.1689  -19.0826  -20.4134 N   0  3  0  0  0  0
  -29.7856  -18.1525  -21.1595 C   0  0  0  0  0  0
  -31.1110  -17.9499  -21.0954 N   0  0  0  0  0  0
  -25.5626  -22.5037  -22.4615 C   0  0  0  0  0  0
  -24.9460  -22.6313  -23.7020 N   0  0  0  0  0  0
  -24.1662  -23.5915  -24.3182 C   0  0  0  0  0  0
  -24.3689  -24.7496  -24.6216 O   0  0  0  0  0  0
  -26.6024  -23.5496  -21.9705 C   0  0  0  0  0  0
  -27.4360  -23.9496  -22.8134 O   0  5  0  0  0  0
  -26.4843  -23.9496  -20.7936 O   0  0  0  0  0  0
  -21.5441  -23.6280  -26.0134 O   0  0  0  0  0  0
  -22.1522  -20.3381  -25.9225 H   0  0  0  0  0  0
  -21.1115  -21.2130  -27.0354 H   0  0  0  0  0  0
  -20.7254  -21.1719  -25.3156 H   0  0  0  0  0  0
  -23.1577  -22.5348  -26.5840 H   0  0  0  0  0  0
  -22.2575  -22.6908  -23.6376 H   0  0  0  0  0  0
  -24.4524  -20.9362  -24.8281 H   0  0  0  0  0  0
  -23.0554  -20.8360  -22.1564 H   0  0  0  0  0  0
  -24.2445  -19.6878  -22.7901 H   0  0  0  0  0  0
  -27.7516  -21.3299  -20.8445 H   0  0  0  0  0  0
  -27.5996  -20.9735  -19.1389 H   0  0  0  0  0  0
  -27.3075  -18.5554  -19.6137 H   0  0  0  0  0  0
  -27.3095  -18.8720  -21.3357 H   0  0  0  0  0  0
  -29.1961  -17.5496  -21.8369 H   0  0  0  0  0  0
  -31.6579  -18.5036  -20.4465 H   0  0  0  0  0  0
  -31.5349  -17.1848  -21.6134 H   0  0  0  0  0  0
  -21.1689  -23.5496  -26.8893 H   0  0  0  0  0  0
  -29.7313  -19.5495  -19.6831 H   0  0  0  0  0  0
  1  2  1  0  0  0
  1 21  1  0  0  0
  1 22  1  0  0  0
  1 23  1  0  0  0
  2  3  1  0  0  0
  2 20  1  0  0  0
  2 24  1  0  0  0
  3 15  1  0  0  0
  3  4  1  0  0  0
  3 25  1  0  0  0
  4 14  1  0  0  0
  4  5  1  0  0  0
  4 26  1  0  0  0
  5  6  1  0  0  0
  5 27  1  0  0  0
  5 28  1  0  0  0
  6  7  1  0  0  0
  6 13  2  0  0  0
  7  8  1  0  0  0
  8  9  1  0  0  0
  8 29  1  0  0  0
  8 30  1  0  0  0
  9 10  1  0  0  0
  9 31  1  0  0  0
  9 32  1  0  0  0
 10 11  2  3  0  0
 10 37  1  0  0  0
 11 12  1  0  0  0
 11 33  1  0  0  0
 12 34  1  0  0  0
 12 35  1  0  0  0
 13 14  1  0  0  0
 13 17  1  0  0  0
 14 15  1  0  0  0
 15 16  2  0  0  0
 17 18  1  0  0  0
 17 19  2  0  0  0
 20 36  1  0  0  0
M  CHG  2  10   1  18  -1
M  END
> <s_m_entry_id>
27251

> <s_m_entry_name>
data_maestro.12

> <s_m_Source_Path>
C:\Users\olshana1\Git\GramNeg-Accumulation\Gram Negative Permeation - OmpF

> <s_m_Source_File>
data_maestro.csv

> <i_m_Source_File_Index>
12

> <s_m_job_name>
glide-dock_Nicaido_neutral

> <s_i_glide_gridfile>
3POX-grid

> <i_i_glide_lignum>
16

> <i_i_glide_rotatable_bonds>
7

> <r_i_docking_score>
-6.11475975454652

> <r_i_glide_ligand_efficiency>
-0.305737987727326

> <r_i_glide_ligand_efficiency_sa>
-0.829900579120611

> <r_i_glide_ligand_efficiency_ln>
-1.53032268828856

> <r_i_glide_gscore>
-6.11475975454652

> <r_i_glide_lipo>
-0.0671843323206973

> <r_i_glide_hbond>
-0.643359073424537

> <r_i_glide_metal>
0

> <r_i_glide_rewards>
-1.36808809090909

> <r_i_glide_evdw>
-12.37939453125

> <r_i_glide_ecoul>
-27.3444385528564

> <r_i_glide_erotb>
1.02473259195513

> <r_i_glide_esite>
-0.44189112328482

> <r_i_glide_emodel>
-74.8893286072194

> <r_i_glide_energy>
-39.7238330841064

> <r_i_glide_einternal>
3.91428828239441

> <i_i_glide_confnum>
37

> <i_i_glide_posenum>
161

> <r_i_glide_eff_state_penalty>
0

> <r_glide_res:A132_vdw>
-0.532313757957457

> <r_glide_res:A132_coul>
-31.0536668194817

> <r_glide_res:A132_hbond>
-0.203636303808135

> <r_glide_res:A132_dist>
1.85490656200844

> <r_glide_res:A132_Eint>
-31.7896168812473

> <r_glide_res:A117_vdw>
-1.82383684258968

> <r_glide_res:A117_coul>
-8.50132912449192

> <r_glide_res:A117_hbond>
0

> <r_glide_res:A117_dist>
2.21240930066285

> <r_glide_res:A117_Eint>
-10.3251659670816

> <r_glide_res:A113_vdw>
2.66080720080882

> <r_glide_res:A113_coul>
-27.3158742379128

> <r_glide_res:A113_hbond>
-0.222782676236732

> <r_glide_res:A113_dist>
1.58014224413363

> <r_glide_res:A113_Eint>
-24.8778497133407

> <r_glide_res:A82_vdw>
3.11792447339939

> <r_glide_res:A82_coul>
-35.5097495637219

> <r_glide_res:A82_hbond>
-0.21694009337967

> <r_glide_res:A82_dist>
1.57293991076083

> <r_glide_res:A82_Eint>
-32.6087651837022

> <r_glide_res:A42_vdw>
-1.67188466759785

> <r_glide_res:A42_coul>
-13.642127019141

> <r_glide_res:A42_hbond>
0

> <r_glide_res:A42_dist>
2.66343975384071

> <r_glide_res:A42_Eint>
-15.3140116867389

> <r_glide_res:A16_vdw>
-0.0999394066253303

> <r_glide_res:A16_coul>
-0.730922870747756

> <r_glide_res:A16_hbond>
0

> <r_glide_res:A16_dist>
6.64028301119624

> <r_glide_res:A16_Eint>
-0.830862277373086

> <s_m_source_file>
ligprep_Nicaido_neutral.maegz

> <i_m_source_file_index>
12

> <i_lp_mmshare_version>
58128

> <i_f3d_flags>
0

> <s_lp_Force_Field>
S-OPLS

> <r_lp_Energy>
18.714001

> <b_lp_Chiralities_Consistent>
1

> <s_lp_Variant>
Imipenem-1

> <s_epik_input>
W0NIM11bQ0BASF0oW09IXSlbQ0BASF0xQyg9TylOKFtDQEhdMTIpQyhDKD1PKVtPSF0pPUMoW0NIMl0yKVNbQ0gyXVtDSDJdL049W0NIXS9bTkgyXQ==

> <s_epik_cmdline>
J2VwaWtfcHl0aG9uJywgJy1waHQnLCAnMC4wJywgJy1waCcsICc3LjQnLCAnLW50JywgJy1tYScsICc1MDAnLCAnLWltYWUnLCAnPGluZmlsZS5tYWU+JywgJy1vbWFlJywgJzxvdXRmaWxlLm1hZT4n

> <r_lp_tautomer_probability>
1

> <r_epik_Ionization_Penalty>
  0.0001

> <r_epik_Ionization_Penalty_Charging>
  0.0001

> <r_epik_Ionization_Penalty_Neutral>
  0.0000

> <r_epik_State_Penalty>
  0.0000

> <r_epik_Charging_Adjusted_Penalty>
9.5675940864495e-05

> <i_epik_Tot_Q>
0

> <i_epik_Tot_abs_Q>
2

> <s_epik_Chemistry_Notes>
This compound has an imine and may undergo hydrolysis.

> <s_m_subgroup_title>
glide-dock_Nicaido_neutral_pv1

> <s_m_subgroupid>
glide-dock_Nicaido_neutral_pv1

> <b_m_subgroup_collapsed>
0

$$$$
Imipenem
                    3D
 Schrodinger Suite 2022-2.
 37 38  0  0  1  0            999 V2000
  -22.1080  -20.2088  -27.0824 C   0  0  0  0  0  0
  -22.8940  -19.5680  -25.9274 C   0  0  2  0  0  0
  -23.0565  -20.4803  -24.7018 C   0  0  1  0  0  0
  -24.0345  -20.1038  -23.5714 C   0  0  2  0  0  0
  -23.7410  -20.2290  -22.0716 C   0  0  0  0  0  0
  -24.6937  -21.3145  -21.6380 C   0  0  0  0  0  0
  -24.9721  -21.6277  -19.9201 S   0  0  0  0  0  0
  -25.6794  -20.0687  -19.2996 C   0  0  0  0  0  0
  -27.1230  -19.8669  -19.7823 C   0  0  0  0  0  0
  -28.0921  -20.7422  -19.1038 N   0  3  0  0  0  0
  -27.8068  -21.7802  -18.2984 C   0  0  0  0  0  0
  -28.7689  -22.5753  -17.8200 N   0  0  0  0  0  0
  -25.2174  -21.9529  -22.6915 C   0  0  0  0  0  0
  -24.7385  -21.3486  -23.8487 N   0  0  0  0  0  0
  -23.9494  -21.7353  -24.9167 C   0  0  0  0  0  0
  -23.9689  -22.7127  -25.6363 O   0  0  0  0  0  0
  -26.2550  -23.1238  -22.7664 C   0  0  0  0  0  0
  -26.2805  -23.9496  -21.8223 O   0  5  0  0  0  0
  -26.9763  -23.1496  -23.7911 O   0  0  0  0  0  0
  -24.1510  -19.1496  -26.4134 O   0  0  0  0  0  0
  -21.1196  -20.5304  -26.7540 H   0  0  0  0  0  0
  -21.9686  -19.4985  -27.8984 H   0  0  0  0  0  0
  -22.6233  -21.0785  -27.4913 H   0  0  0  0  0  0
  -22.3639  -18.6638  -25.6250 H   0  0  0  0  0  0
  -22.0869  -20.7421  -24.2773 H   0  0  0  0  0  0
  -24.6868  -19.2634  -23.8197 H   0  0  0  0  0  0
  -22.7147  -20.5422  -21.8792 H   0  0  0  0  0  0
  -23.9188  -19.2890  -21.5513 H   0  0  0  0  0  0
  -25.6445  -20.0675  -18.2096 H   0  0  0  0  0  0
  -25.0593  -19.2306  -19.6141 H   0  0  0  0  0  0
  -27.4280  -18.8337  -19.6134 H   0  0  0  0  0  0
  -27.1894  -20.0283  -20.8587 H   0  0  0  0  0  0
  -26.7929  -21.9985  -17.9930 H   0  0  0  0  0  0
  -29.7718  -22.3496  -18.0134 H   0  0  0  0  0  0
  -28.5420  -23.3257  -17.1852 H   0  0  0  0  0  0
  -24.3689  -18.2872  -26.0235 H   0  0  0  0  0  0
  -29.0688  -20.4665  -19.2035 H   0  0  0  0  0  0
  1  2  1  0  0  0
  1 21  1  0  0  0
  1 22  1  0  0  0
  1 23  1  0  0  0
  2  3  1  0  0  0
  2 20  1  0  0  0
  2 24  1  0  0  0
  3 15  1  0  0  0
  3  4  1  0  0  0
  3 25  1  0  0  0
  4 14  1  0  0  0
  4  5  1  0  0  0
  4 26  1  0  0  0
  5  6  1  0  0  0
  5 27  1  0  0  0
  5 28  1  0  0  0
  6  7  1  0  0  0
  6 13  2  0  0  0
  7  8  1  0  0  0
  8  9  1  0  0  0
  8 29  1  0  0  0
  8 30  1  0  0  0
  9 10  1  0  0  0
  9 31  1  0  0  0
  9 32  1  0  0  0
 10 11  2  3  0  0
 10 37  1  0  0  0
 11 12  1  0  0  0
 11 33  1  0  0  0
 12 34  1  0  0  0
 12 35  1  0  0  0
 13 14  1  0  0  0
 13 17  1  0  0  0
 14 15  1  0  0  0
 15 16  2  0  0  0
 17 18  1  0  0  0
 17 19  2  0  0  0
 20 36  1  0  0  0
M  CHG  2  10   1  18  -1
M  END
> <s_m_entry_id>
27252

> <s_m_entry_name>
data_maestro.12

> <s_m_Source_Path>
C:\Users\olshana1\Git\GramNeg-Accumulation\Gram Negative Permeation - OmpF

> <s_m_Source_File>
data_maestro.csv

> <i_m_Source_File_Index>
12

> <s_m_job_name>
glide-dock_Nicaido_neutral

> <s_i_glide_gridfile>
3POX-grid

> <i_i_glide_lignum>
16

> <i_i_glide_rotatable_bonds>
7

> <r_i_docking_score>
-6.09053551731022

> <r_i_glide_ligand_efficiency>
-0.304526775865511

> <r_i_glide_ligand_efficiency_sa>
-0.826612844308755

> <r_i_glide_ligand_efficiency_ln>
-1.52426016067714

> <r_i_glide_gscore>
-6.09053551731022

> <r_i_glide_lipo>
-0.211450484002544

> <r_i_glide_hbond>
-0.911727325224983

> <r_i_glide_metal>
0

> <r_i_glide_rewards>
-1.36808809090909

> <r_i_glide_evdw>
-12.3789358139038

> <r_i_glide_ecoul>
-23.52712059021

> <r_i_glide_erotb>
1.02473259195513

> <r_i_glide_esite>
-0.475987329902044

> <r_i_glide_emodel>
-70.3249150235483

> <r_i_glide_energy>
-35.9060564041138

> <r_i_glide_einternal>
5.11343193054199

> <i_i_glide_confnum>
288

> <i_i_glide_posenum>
14

> <r_i_glide_eff_state_penalty>
0

> <r_glide_res:A132_vdw>
-0.530382795258542

> <r_glide_res:A132_coul>
-17.8788780013485

> <r_glide_res:A132_hbond>
-0.158870928652018

> <r_glide_res:A132_dist>
2.02095097964322

> <r_glide_res:A132_Eint>
-18.568131725259

> <r_glide_res:A117_vdw>
0.372474172808095

> <r_glide_res:A117_coul>
-7.49669769407429

> <r_glide_res:A117_hbond>
-0.16

> <r_glide_res:A117_dist>
1.63171767095339

> <r_glide_res:A117_Eint>
-7.2842235212662

> <r_glide_res:A113_vdw>
4.36478921649558

> <r_glide_res:A113_coul>
-37.684067374474

> <r_glide_res:A113_hbond>
-0.360890079553425

> <r_glide_res:A113_dist>
1.52178015910685

> <r_glide_res:A113_Eint>
-33.6801682375318

> <r_glide_res:A82_vdw>
-0.544406783242331

> <r_glide_res:A82_coul>
-25.8388632724661

> <r_glide_res:A82_hbond>
-0.159079762124311

> <r_glide_res:A82_dist>
2.12768553575943

> <r_glide_res:A82_Eint>
-26.5423498178327

> <r_glide_res:A42_vdw>
-1.11707964107127

> <r_glide_res:A42_coul>
-26.8228435244038

> <r_glide_res:A42_hbond>
-0.0728865548952282

> <r_glide_res:A42_dist>
2.31579920261462

> <r_glide_res:A42_Eint>
-28.0128097203703

> <r_glide_res:A16_vdw>
-0.121173717484031

> <r_glide_res:A16_coul>
-8.5025410329689

> <r_glide_res:A16_hbond>
0

> <r_glide_res:A16_dist>
5.80425429341512

> <r_glide_res:A16_Eint>
-8.62371475045293

> <s_m_source_file>
ligprep_Nicaido_neutral.maegz

> <i_m_source_file_index>
12

> <i_lp_mmshare_version>
58128

> <i_f3d_flags>
0

> <s_lp_Force_Field>
S-OPLS

> <r_lp_Energy>
18.714001

> <b_lp_Chiralities_Consistent>
1

> <s_lp_Variant>
Imipenem-1

> <s_epik_input>
W0NIM11bQ0BASF0oW09IXSlbQ0BASF0xQyg9TylOKFtDQEhdMTIpQyhDKD1PKVtPSF0pPUMoW0NIMl0yKVNbQ0gyXVtDSDJdL049W0NIXS9bTkgyXQ==

> <s_epik_cmdline>
J2VwaWtfcHl0aG9uJywgJy1waHQnLCAnMC4wJywgJy1waCcsICc3LjQnLCAnLW50JywgJy1tYScsICc1MDAnLCAnLWltYWUnLCAnPGluZmlsZS5tYWU+JywgJy1vbWFlJywgJzxvdXRmaWxlLm1hZT4n

> <r_lp_tautomer_probability>
1

> <r_epik_Ionization_Penalty>
  0.0001

> <r_epik_Ionization_Penalty_Charging>
  0.0001

> <r_epik_Ionization_Penalty_Neutral>
  0.0000

> <r_epik_State_Penalty>
  0.0000

> <r_epik_Charging_Adjusted_Penalty>
9.5675940864495e-05

> <i_epik_Tot_Q>
0

> <i_epik_Tot_abs_Q>
2

> <s_epik_Chemistry_Notes>
This compound has an imine and may undergo hydrolysis.

> <s_m_subgroup_title>
glide-dock_Nicaido_neutral_pv1

> <s_m_subgroupid>
glide-dock_Nicaido_neutral_pv1

> <b_m_subgroup_collapsed>
0

$$$$
Cyclacillin
                    3D
 Schrodinger Suite 2022-2.
 46 48  0  0  1  0            999 V2000
  -24.1642  -23.0750  -16.8246 C   0  0  0  0  0  0
  -23.9997  -22.1717  -18.0624 C   0  0  0  0  0  0
  -24.3930  -22.8379  -19.4317 C   0  0  2  0  0  0
  -25.7537  -22.3971  -19.6547 N   0  0  0  0  0  0
  -26.2533  -21.0936  -19.2674 C   0  0  2  0  0  0
  -25.1691  -20.7660  -17.8404 S   0  0  0  0  0  0
  -27.6552  -21.7254  -19.2140 C   0  0  2  0  0  0
  -26.9947  -22.9294  -19.8954 C   0  0  0  0  0  0
  -27.3644  -23.9591  -20.4140 O   0  0  0  0  0  0
  -28.6776  -21.0313  -20.0087 N   0  0  0  0  0  0
  -28.7211  -20.7604  -21.3281 C   0  0  0  0  0  0
  -29.8589  -19.8316  -21.8060 C   0  0  0  0  0  0
  -29.5374  -19.2297  -23.2000 C   0  0  0  0  0  0
  -30.6770  -18.3517  -23.7456 C   0  0  0  0  0  0
  -31.9996  -19.1323  -23.8000 C   0  0  0  0  0  0
  -32.3463  -19.7528  -22.4371 C   0  0  0  0  0  0
  -31.1908  -20.6165  -21.8937 C   0  0  0  0  0  0
  -29.9790  -18.7482  -20.8134 N   0  3  0  0  0  0
  -27.8946  -21.1919  -22.1332 O   0  0  0  0  0  0
  -24.1888  -24.3626  -19.5974 C   0  0  0  0  0  0
  -23.5057  -24.7443  -20.5741 O   0  5  0  0  0  0
  -24.7682  -25.1496  -18.8137 O   0  0  0  0  0  0
  -22.5573  -21.6416  -18.1120 C   0  0  0  0  0  0
  -23.4552  -23.9021  -16.8269 H   0  0  0  0  0  0
  -25.1686  -23.4951  -16.7830 H   0  0  0  0  0  0
  -24.0077  -22.5166  -15.9003 H   0  0  0  0  0  0
  -23.8195  -22.3582  -20.2263 H   0  0  0  0  0  0
  -26.1186  -20.3403  -20.0459 H   0  0  0  0  0  0
  -27.9746  -21.9195  -18.1889 H   0  0  0  0  0  0
  -29.4579  -20.6955  -19.4452 H   0  0  0  0  0  0
  -28.6100  -18.6594  -23.1670 H   0  0  0  0  0  0
  -29.3602  -20.0333  -23.9169 H   0  0  0  0  0  0
  -30.7929  -17.4629  -23.1257 H   0  0  0  0  0  0
  -30.4185  -17.9878  -24.7412 H   0  0  0  0  0  0
  -32.8068  -18.4744  -24.1250 H   0  0  0  0  0  0
  -31.9249  -19.9213  -24.5486 H   0  0  0  0  0  0
  -32.5890  -18.9631  -21.7249 H   0  0  0  0  0  0
  -33.2477  -20.3595  -22.5293 H   0  0  0  0  0  0
  -31.0626  -21.4839  -22.5429 H   0  0  0  0  0  0
  -31.4665  -21.0144  -20.9146 H   0  0  0  0  0  0
  -30.6547  -18.0702  -21.1310 H   0  0  0  0  0  0
  -30.3110  -19.1352  -19.9146 H   0  0  0  0  0  0
  -21.8452  -22.4520  -18.2711 H   0  0  0  0  0  0
  -22.4274  -20.9211  -18.9201 H   0  0  0  0  0  0
  -22.2888  -21.1390  -17.1822 H   0  0  0  0  0  0
  -29.0948  -18.2783  -20.6694 H   0  0  0  0  0  0
  1  2  1  0  0  0
  1 24  1  0  0  0
  1 25  1  0  0  0
  1 26  1  0  0  0
  2  6  1  0  0  0
  2  3  1  0  0  0
  2 23  1  0  0  0
  3  4  1  0  0  0
  3 20  1  0  0  0
  3 27  1  0  0  0
  4  8  1  0  0  0
  4  5  1  0  0  0
  5  6  1  0  0  0
  5  7  1  0  0  0
  5 28  1  0  0  0
  7  8  1  0  0  0
  7 10  1  0  0  0
  7 29  1  0  0  0
  8  9  2  0  0  0
 10 11  1  0  0  0
 10 30  1  0  0  0
 11 12  1  0  0  0
 11 19  2  0  0  0
 12 17  1  0  0  0
 12 13  1  0  0  0
 12 18  1  0  0  0
 13 14  1  0  0  0
 13 31  1  0  0  0
 13 32  1  0  0  0
 14 15  1  0  0  0
 14 33  1  0  0  0
 14 34  1  0  0  0
 15 16  1  0  0  0
 15 35  1  0  0  0
 15 36  1  0  0  0
 16 17  1  0  0  0
 16 37  1  0  0  0
 16 38  1  0  0  0
 17 39  1  0  0  0
 17 40  1  0  0  0
 18 41  1  0  0  0
 18 42  1  0  0  0
 18 46  1  0  0  0
 20 21  1  0  0  0
 20 22  2  0  0  0
 23 43  1  0  0  0
 23 44  1  0  0  0
 23 45  1  0  0  0
M  CHG  2  18   1  21  -1
M  END
> <s_m_entry_id>
27253

> <s_m_entry_name>
data_maestro.19

> <s_m_Source_Path>
C:\Users\olshana1\Git\GramNeg-Accumulation\Gram Negative Permeation - OmpF

> <s_m_Source_File>
data_maestro.csv

> <i_m_Source_File_Index>
19

> <s_m_job_name>
glide-dock_Nicaido_neutral

> <s_i_glide_gridfile>
3POX-grid

> <i_i_glide_lignum>
24

> <i_i_glide_rotatable_bonds>
4

> <r_i_docking_score>
-6.0856208188124

> <r_i_glide_ligand_efficiency>
-0.264592209513582

> <r_i_glide_ligand_efficiency_sa>
-0.752465046975195

> <r_i_glide_ligand_efficiency_ln>
-1.47155829534756

> <r_i_glide_gscore>
-6.2889208188124

> <r_i_glide_lipo>
0

> <r_i_glide_hbond>
-0.652589233479266

> <r_i_glide_metal>
0

> <r_i_glide_rewards>
-1.08015585281108

> <r_i_glide_evdw>
-22.3547534942627

> <r_i_glide_ecoul>
-22.9874496459961

> <r_i_glide_erotb>
0.487675558125352

> <r_i_glide_esite>
-0.477996169034853

> <r_i_glide_emodel>
-78.6126686995406

> <r_i_glide_energy>
-45.3422031402588

> <r_i_glide_einternal>
5.23932027816772

> <i_i_glide_confnum>
19

> <i_i_glide_posenum>
358

> <r_i_glide_eff_state_penalty>
0.2033

> <r_glide_res:A132_vdw>
-0.919605347407666

> <r_glide_res:A132_coul>
-30.3371490362976

> <r_glide_res:A132_hbond>
-0.223115344346001

> <r_glide_res:A132_dist>
1.94482911503894

> <r_glide_res:A132_Eint>
-31.4798697280512

> <r_glide_res:A117_vdw>
-2.59102186825968

> <r_glide_res:A117_coul>
-8.05774543409399

> <r_glide_res:A117_hbond>
0

> <r_glide_res:A117_dist>
2.41295513252136

> <r_glide_res:A117_Eint>
-10.6487673023537

> <r_glide_res:A113_vdw>
0.87638680260071

> <r_glide_res:A113_coul>
-45.5652548752409

> <r_glide_res:A113_hbond>
-0.345142353719287

> <r_glide_res:A113_dist>
1.57028470743857

> <r_glide_res:A113_Eint>
-45.0340104263594

> <r_glide_res:A82_vdw>
-0.68823331110746

> <r_glide_res:A82_coul>
-10.8376717227621

> <r_glide_res:A82_hbond>
0

> <r_glide_res:A82_dist>
3.48863966087122

> <r_glide_res:A82_Eint>
-11.5259050338695

> <r_glide_res:A42_vdw>
-0.293917473399402

> <r_glide_res:A42_coul>
-3.73646554016666

> <r_glide_res:A42_hbond>
0

> <r_glide_res:A42_dist>
4.49040316235914

> <r_glide_res:A42_Eint>
-4.03038301356607

> <r_glide_res:A16_vdw>
-0.169790429251683

> <r_glide_res:A16_coul>
4.71713981656208

> <r_glide_res:A16_hbond>
0

> <r_glide_res:A16_dist>
4.11732551576329

> <r_glide_res:A16_Eint>
4.54734938731039

> <s_m_source_file>
ligprep_Nicaido_neutral.maegz

> <i_m_source_file_index>
19

> <i_lp_mmshare_version>
58128

> <i_f3d_flags>
0

> <s_lp_Force_Field>
S-OPLS

> <r_lp_Energy>
30.580191

> <b_lp_Chiralities_Consistent>
1

> <s_lp_Variant>
Cyclacillin-1

> <s_epik_input>
W09IXUMoPU8pW0NAQEhdMUMoW0NIM10pKFtDSDNdKVNbQ0BASF0oTjEyKVtDQEhdKEMyPU8pW05IXUMoPU8pQzMoW05IMl0pW0NIMl1bQ0gyXVtDSDJdW0NIMl1bQ0gyXTM=

> <s_epik_cmdline>
J2VwaWtfcHl0aG9uJywgJy1waHQnLCAnMC4wJywgJy1waCcsICc3LjQnLCAnLW50JywgJy1tYScsICc1MDAnLCAnLWltYWUnLCAnPGluZmlsZS5tYWU+JywgJy1vbWFlJywgJzxvdXRmaWxlLm1hZT4n

> <r_epik_Ionization_Penalty>
  0.2033

> <r_epik_Ionization_Penalty_Charging>
  0.2033

> <r_epik_Ionization_Penalty_Neutral>
  0.0000

> <r_epik_State_Penalty>
  0.2033

> <r_epik_Charging_Adjusted_Penalty>
0.406545099244061

> <i_epik_Tot_Q>
0

> <i_epik_Tot_abs_Q>
2

> <s_epik_Chemistry_Notes>
This compound contains an acetal/aminal-like group ( X-CH(R)-Y where X, Y are N, S, or O) that may be acid/base labile, releasing an aldehyde.

> <s_m_subgroup_title>
glide-dock_Nicaido_neutral_pv1

> <s_m_subgroupid>
glide-dock_Nicaido_neutral_pv1

> <b_m_subgroup_collapsed>
0

$$$$
Imipenem
                    3D
 Schrodinger Suite 2022-2.
 37 38  0  0  1  0            999 V2000
  -22.2879  -19.0682  -26.9661 C   0  0  0  0  0  0
  -22.4026  -20.5955  -26.8538 C   0  0  2  0  0  0
  -22.7730  -21.0722  -25.4439 C   0  0  1  0  0  0
  -23.9421  -20.4207  -24.6798 C   0  0  2  0  0  0
  -23.8869  -20.0200  -23.1982 C   0  0  0  0  0  0
  -24.8439  -20.9906  -22.5635 C   0  0  0  0  0  0
  -25.4634  -20.6894  -20.9391 S   0  0  0  0  0  0
  -27.2102  -20.3262  -21.2492 C   0  0  0  0  0  0
  -27.7239  -19.2539  -20.2881 C   0  0  0  0  0  0
  -29.1689  -19.0736  -20.4134 N   0  3  0  0  0  0
  -29.7627  -18.1514  -21.1895 C   0  0  0  0  0  0
  -31.0893  -17.9496  -21.1574 N   0  0  0  0  0  0
  -25.1806  -21.9721  -23.4050 C   0  0  0  0  0  0
  -24.5684  -21.7352  -24.6328 N   0  0  0  0  0  0
  -23.6309  -22.3667  -25.4294 C   0  0  0  0  0  0
  -23.5689  -23.4918  -25.8802 O   0  0  0  0  0  0
  -26.2100  -23.1256  -23.2030 C   0  0  0  0  0  0
  -25.9960  -23.9496  -22.2829 O   0  5  0  0  0  0
  -27.1638  -23.1496  -24.0134 O   0  0  0  0  0  0
  -21.1535  -21.1496  -27.2134 O   0  0  0  0  0  0
  -23.2439  -18.5780  -26.7821 H   0  0  0  0  0  0
  -21.9689  -18.7728  -27.9656 H   0  0  0  0  0  0
  -21.5689  -18.6668  -26.2516 H   0  0  0  0  0  0
  -23.1364  -20.9377  -27.5851 H   0  0  0  0  0  0
  -21.9029  -21.1251  -24.7877 H   0  0  0  0  0  0
  -24.5599  -19.7607  -25.2927 H   0  0  0  0  0  0
  -22.8916  -20.1445  -22.7712 H   0  0  0  0  0  0
  -24.2078  -18.9888  -23.0434 H   0  0  0  0  0  0
  -27.3205  -19.9751  -22.2761 H   0  0  0  0  0  0
  -27.7865  -21.2475  -21.1593 H   0  0  0  0  0  0
  -27.5123  -19.5496  -19.2598 H   0  0  0  0  0  0
  -27.2194  -18.3024  -20.4569 H   0  0  0  0  0  0
  -29.1689  -17.5495  -21.8611 H   0  0  0  0  0  0
  -31.6512  -18.4940  -20.5140 H   0  0  0  0  0  0
  -31.4996  -17.1778  -21.6764 H   0  0  0  0  0  0
  -21.2608  -22.0510  -27.4984 H   0  0  0  0  0  0
  -29.7644  -19.5496  -19.7157 H   0  0  0  0  0  0
  1  2  1  0  0  0
  1 21  1  0  0  0
  1 22  1  0  0  0
  1 23  1  0  0  0
  2  3  1  0  0  0
  2 20  1  0  0  0
  2 24  1  0  0  0
  3 15  1  0  0  0
  3  4  1  0  0  0
  3 25  1  0  0  0
  4 14  1  0  0  0
  4  5  1  0  0  0
  4 26  1  0  0  0
  5  6  1  0  0  0
  5 27  1  0  0  0
  5 28  1  0  0  0
  6  7  1  0  0  0
  6 13  2  0  0  0
  7  8  1  0  0  0
  8  9  1  0  0  0
  8 29  1  0  0  0
  8 30  1  0  0  0
  9 10  1  0  0  0
  9 31  1  0  0  0
  9 32  1  0  0  0
 10 11  2  3  0  0
 10 37  1  0  0  0
 11 12  1  0  0  0
 11 33  1  0  0  0
 12 34  1  0  0  0
 12 35  1  0  0  0
 13 14  1  0  0  0
 13 17  1  0  0  0
 14 15  1  0  0  0
 15 16  2  0  0  0
 17 18  1  0  0  0
 17 19  2  0  0  0
 20 36  1  0  0  0
M  CHG  2  10   1  18  -1
M  END
> <s_m_entry_id>
27254

> <s_m_entry_name>
data_maestro.12

> <s_m_Source_Path>
C:\Users\olshana1\Git\GramNeg-Accumulation\Gram Negative Permeation - OmpF

> <s_m_Source_File>
data_maestro.csv

> <i_m_Source_File_Index>
12

> <s_m_job_name>
glide-dock_Nicaido_neutral

> <s_i_glide_gridfile>
3POX-grid

> <i_i_glide_lignum>
16

> <i_i_glide_rotatable_bonds>
7

> <r_i_docking_score>
-6.07990042297725

> <r_i_glide_ligand_efficiency>
-0.303995021148863

> <r_i_glide_ligand_efficiency_sa>
-0.825169439939618

> <r_i_glide_ligand_efficiency_ln>
-1.52159854733448

> <r_i_glide_gscore>
-6.07990042297725

> <r_i_glide_lipo>
-0.147167731120054

> <r_i_glide_hbond>
-0.955827973937986

> <r_i_glide_metal>
0

> <r_i_glide_rewards>
-1.36808809090909

> <r_i_glide_evdw>
-16.2680034637451

> <r_i_glide_ecoul>
-22.5532245635986

> <r_i_glide_erotb>
1.02473259195513

> <r_i_glide_esite>
-0.437165361238194

> <r_i_glide_emodel>
-71.7541858849374

> <r_i_glide_energy>
-38.8212280273438

> <r_i_glide_einternal>
7.95610237121582

> <i_i_glide_confnum>
39

> <i_i_glide_posenum>
82

> <r_i_glide_eff_state_penalty>
0

> <r_glide_res:A132_vdw>
-0.718397087401227

> <r_glide_res:A132_coul>
-20.3807957756596

> <r_glide_res:A132_hbond>
-0.078853739059945

> <r_glide_res:A132_dist>
2.24307512044612

> <r_glide_res:A132_Eint>
-21.1780466021208

> <r_glide_res:A117_vdw>
-3.2359328778841

> <r_glide_res:A117_coul>
-6.89631044472146

> <r_glide_res:A117_hbond>
0

> <r_glide_res:A117_dist>
2.18084312643577

> <r_glide_res:A117_Eint>
-10.1322433226056

> <r_glide_res:A113_vdw>
2.76820125489944

> <r_glide_res:A113_coul>
-30.3201968715342

> <r_glide_res:A113_hbond>
-0.205877205349903

> <r_glide_res:A113_dist>
1.57773337239083

> <r_glide_res:A113_Eint>
-27.7578728219846

> <r_glide_res:A82_vdw>
0.0630449045046109

> <r_glide_res:A82_coul>
-26.800073204597

> <r_glide_res:A82_hbond>
-0.208736003735182

> <r_glide_res:A82_dist>
2.14381803079099

> <r_glide_res:A82_Eint>
-26.9457643038276

> <r_glide_res:A42_vdw>
-1.29065417912613

> <r_glide_res:A42_coul>
-23.8052631732217

> <r_glide_res:A42_hbond>
-0.172010722715676

> <r_glide_res:A42_dist>
2.16656793563492

> <r_glide_res:A42_Eint>
-25.2679280750635

> <r_glide_res:A16_vdw>
-0.144015902931272

> <r_glide_res:A16_coul>
-3.10162441510014

> <r_glide_res:A16_hbond>
0

> <r_glide_res:A16_dist>
5.53226569245418

> <r_glide_res:A16_Eint>
-3.24564031803141

> <s_m_source_file>
ligprep_Nicaido_neutral.maegz

> <i_m_source_file_index>
12

> <i_lp_mmshare_version>
58128

> <i_f3d_flags>
0

> <s_lp_Force_Field>
S-OPLS

> <r_lp_Energy>
18.714001

> <b_lp_Chiralities_Consistent>
1

> <s_lp_Variant>
Imipenem-1

> <s_epik_input>
W0NIM11bQ0BASF0oW09IXSlbQ0BASF0xQyg9TylOKFtDQEhdMTIpQyhDKD1PKVtPSF0pPUMoW0NIMl0yKVNbQ0gyXVtDSDJdL049W0NIXS9bTkgyXQ==

> <s_epik_cmdline>
J2VwaWtfcHl0aG9uJywgJy1waHQnLCAnMC4wJywgJy1waCcsICc3LjQnLCAnLW50JywgJy1tYScsICc1MDAnLCAnLWltYWUnLCAnPGluZmlsZS5tYWU+JywgJy1vbWFlJywgJzxvdXRmaWxlLm1hZT4n

> <r_lp_tautomer_probability>
1

> <r_epik_Ionization_Penalty>
  0.0001

> <r_epik_Ionization_Penalty_Charging>
  0.0001

> <r_epik_Ionization_Penalty_Neutral>
  0.0000

> <r_epik_State_Penalty>
  0.0000

> <r_epik_Charging_Adjusted_Penalty>
9.5675940864495e-05

> <i_epik_Tot_Q>
0

> <i_epik_Tot_abs_Q>
2

> <s_epik_Chemistry_Notes>
This compound has an imine and may undergo hydrolysis.

> <s_m_subgroup_title>
glide-dock_Nicaido_neutral_pv1

> <s_m_subgroupid>
glide-dock_Nicaido_neutral_pv1

> <b_m_subgroup_collapsed>
0

$$$$
Ceftazidime
                    3D
 Schrodinger Suite 2022-2.
 58 61  0  0  1  0            999 V2000
  -19.3236  -23.8552  -17.7100 C   0  0  0  0  0  0
  -20.6501  -24.4592  -18.2003 C   0  0  0  0  0  0
  -20.8121  -24.2103  -19.7194 C   0  0  0  0  0  0
  -20.6333  -25.9712  -17.8820 C   0  0  0  0  0  0
  -21.1689  -26.3494  -16.8138 O   0  5  0  0  0  0
  -20.0684  -26.7480  -18.6924 O   0  0  0  0  0  0
  -21.6591  -23.7646  -17.4567 O   0  0  0  0  0  0
  -22.9505  -24.2019  -17.8205 N   0  0  0  0  0  0
  -23.8126  -23.2715  -17.7702 C   0  0  0  0  0  0
  -25.2419  -23.5664  -18.1864 C   0  0  0  0  0  0
  -26.0218  -22.4841  -18.3665 N   0  0  0  0  0  0
  -27.3081  -22.4384  -19.0772 C   0  0  1  0  0  0
  -27.4432  -21.1411  -19.8937 C   0  0  2  0  0  0
  -27.4023  -21.9371  -21.1145 N   0  0  0  0  0  0
  -27.3538  -21.3961  -22.4286 C   0  0  0  0  0  0
  -27.7119  -22.3973  -23.6359 C   0  0  0  0  0  0
  -28.1159  -23.5487  -23.3523 O   0  5  0  0  0  0
  -27.5734  -21.9913  -24.8135 O   0  0  0  0  0  0
  -27.0216  -20.0803  -22.6065 C   0  0  0  0  0  0
  -26.9984  -19.3250  -23.9434 C   0  0  0  0  0  0
  -28.3394  -18.8814  -24.4138 N   0  3  0  0  0  0
  -28.4192  -18.4308  -25.6902 C   0  0  0  0  0  0
  -29.6317  -17.9498  -26.2239 C   0  0  0  0  0  0
  -30.7825  -17.9494  -25.4135 C   0  0  0  0  0  0
  -30.6852  -18.4164  -24.0892 C   0  0  0  0  0  0
  -29.4426  -18.8797  -23.6105 C   0  0  0  0  0  0
  -26.6656  -19.1409  -21.4554 C   0  0  0  0  0  0
  -26.1023  -19.9352  -19.9584 S   0  0  0  0  0  0
  -27.3139  -23.1473  -20.4559 C   0  0  0  0  0  0
  -27.1689  -24.2790  -20.8572 O   0  0  0  0  0  0
  -25.6092  -24.7225  -18.4170 O   0  0  0  0  0  0
  -23.4715  -21.8806  -17.3632 C   0  0  0  0  0  0
  -23.2970  -20.8837  -18.2955 C   0  0  0  0  0  0
  -22.7913  -19.3839  -17.5671 S   0  0  0  0  0  0
  -22.7685  -20.1999  -16.0144 C   0  0  0  0  0  0
  -22.3682  -19.5576  -14.8585 N   0  0  0  0  0  0
  -23.1677  -21.4699  -16.0604 N   0  0  0  0  0  0
  -18.4658  -24.3076  -18.2087 H   0  0  0  0  0  0
  -19.2901  -22.7827  -17.9038 H   0  0  0  0  0  0
  -19.1987  -23.9946  -16.6357 H   0  0  0  0  0  0
  -19.9504  -24.5781  -20.2773 H   0  0  0  0  0  0
  -21.6954  -24.7068  -20.1219 H   0  0  0  0  0  0
  -20.9079  -23.1448  -19.9284 H   0  0  0  0  0  0
  -25.6348  -21.5800  -18.1306 H   0  0  0  0  0  0
  -28.1760  -22.6297  -18.4444 H   0  0  0  0  0  0
  -28.4130  -20.6545  -19.7631 H   0  0  0  0  0  0
  -26.3792  -18.4284  -23.8878 H   0  0  0  0  0  0
  -26.5286  -19.9057  -24.7336 H   0  0  0  0  0  0
  -27.4933  -18.4149  -26.2465 H   0  0  0  0  0  0
  -29.6640  -17.5426  -27.2247 H   0  0  0  0  0  0
  -31.7182  -17.5610  -25.7897 H   0  0  0  0  0  0
  -31.5462  -18.3954  -23.4348 H   0  0  0  0  0  0
  -29.3338  -19.2192  -22.5927 H   0  0  0  0  0  0
  -25.8763  -18.4482  -21.7451 H   0  0  0  0  0  0
  -27.5434  -18.5493  -21.1965 H   0  0  0  0  0  0
  -23.4213  -20.9404  -19.3668 H   0  0  0  0  0  0
  -22.6497  -19.9941  -13.9895 H   0  0  0  0  0  0
  -22.3794  -18.5453  -14.8506 H   0  0  0  0  0  0
  1  2  1  0  0  0
  1 38  1  0  0  0
  1 39  1  0  0  0
  1 40  1  0  0  0
  2  3  1  0  0  0
  2  4  1  0  0  0
  2  7  1  0  0  0
  3 41  1  0  0  0
  3 42  1  0  0  0
  3 43  1  0  0  0
  4  5  1  0  0  0
  4  6  2  0  0  0
  7  8  1  0  0  0
  8  9  2  3  0  0
  9 10  1  0  0  0
  9 32  1  0  0  0
 10 11  1  0  0  0
 10 31  2  0  0  0
 11 12  1  0  0  0
 11 44  1  0  0  0
 12 29  1  0  0  0
 12 13  1  0  0  0
 12 45  1  0  0  0
 13 28  1  0  0  0
 13 14  1  0  0  0
 13 46  1  0  0  0
 14 15  1  0  0  0
 14 29  1  0  0  0
 15 16  1  0  0  0
 15 19  2  0  0  0
 16 17  1  0  0  0
 16 18  2  0  0  0
 19 20  1  0  0  0
 19 27  1  0  0  0
 20 21  1  0  0  0
 20 47  1  0  0  0
 20 48  1  0  0  0
 21 26  1  0  0  0
 21 22  2  0  0  0
 22 23  1  0  0  0
 22 49  1  0  0  0
 23 24  2  0  0  0
 23 50  1  0  0  0
 24 25  1  0  0  0
 24 51  1  0  0  0
 25 26  2  0  0  0
 25 52  1  0  0  0
 26 53  1  0  0  0
 27 28  1  0  0  0
 27 54  1  0  0  0
 27 55  1  0  0  0
 29 30  2  0  0  0
 32 37  1  0  0  0
 32 33  2  0  0  0
 33 34  1  0  0  0
 33 56  1  0  0  0
 34 35  1  0  0  0
 35 36  1  0  0  0
 35 37  2  0  0  0
 36 57  1  0  0  0
 36 58  1  0  0  0
M  CHG  3   5  -1  17  -1  21   1
M  END
> <s_m_entry_id>
27255

> <s_m_entry_name>
data_maestro.30

> <s_m_Source_Path>
C:\Users\olshana1\Git\GramNeg-Accumulation\Gram Negative Permeation - OmpF

> <s_m_Source_File>
data_maestro.csv

> <i_m_Source_File_Index>
30

> <s_m_job_name>
glide-dock_Nicaido_neutral

> <s_i_glide_gridfile>
3POX-grid

> <i_i_glide_lignum>
38

> <i_i_glide_rotatable_bonds>
10

> <r_i_docking_score>
-6.06016754761563

> <r_i_glide_ligand_efficiency>
-0.16378831209772

> <r_i_glide_ligand_efficiency_sa>
-0.545778991959308

> <r_i_glide_ligand_efficiency_ln>
-1.31430827059342

> <r_i_glide_gscore>
-6.06016754761563

> <r_i_glide_lipo>
-0.020455539615259

> <r_i_glide_hbond>
-1.16526838730542

> <r_i_glide_metal>
0

> <r_i_glide_rewards>
0.293185175035323

> <r_i_glide_evdw>
-29.7199420928955

> <r_i_glide_ecoul>
-24.1382503509521

> <r_i_glide_erotb>
0.556495996469625

> <r_i_glide_esite>
-0.617390134912305

> <r_i_glide_emodel>
-92.2869526318731

> <r_i_glide_energy>
-53.8581924438477

> <r_i_glide_einternal>
10.6893062591553

> <i_i_glide_confnum>
218

> <i_i_glide_posenum>
39

> <r_i_glide_eff_state_penalty>
0

> <r_glide_res:A132_vdw>
2.55704592004493

> <r_glide_res:A132_coul>
-45.5123662753943

> <r_glide_res:A132_hbond>
-0.238926135791601

> <r_glide_res:A132_dist>
1.80851047184521

> <r_glide_res:A132_Eint>
-43.194246491141

> <r_glide_res:A117_vdw>
-2.03236657815026

> <r_glide_res:A117_coul>
-12.0167936810728

> <r_glide_res:A117_hbond>
0

> <r_glide_res:A117_dist>
2.27556702768542

> <r_glide_res:A117_Eint>
-14.049160259223

> <r_glide_res:A113_vdw>
-2.1527627153315

> <r_glide_res:A113_coul>
5.78818374401269

> <r_glide_res:A113_hbond>
0

> <r_glide_res:A113_dist>
2.81888007719971

> <r_glide_res:A113_Eint>
3.63542102868119

> <r_glide_res:A82_vdw>
-0.740189948374738

> <r_glide_res:A82_coul>
-42.384019909609

> <r_glide_res:A82_hbond>
-0.166686862407807

> <r_glide_res:A82_dist>
1.9688288689558

> <r_glide_res:A82_Eint>
-43.2908967203915

> <r_glide_res:A42_vdw>
-0.543596944707692

> <r_glide_res:A42_coul>
-33.7248007946237

> <r_glide_res:A42_hbond>
-0.2

> <r_glide_res:A42_dist>
1.83133353465181

> <r_glide_res:A42_Eint>
-34.4683977393314

> <r_glide_res:A16_vdw>
-0.598995312422717

> <r_glide_res:A16_coul>
-8.07640231057965

> <r_glide_res:A16_hbond>
0

> <r_glide_res:A16_dist>
3.46237633849774

> <r_glide_res:A16_Eint>
-8.67539762300236

> <s_m_source_file>
ligprep_Nicaido_neutral.maegz

> <i_m_source_file_index>
30

> <i_lp_mmshare_version>
58128

> <i_f3d_flags>
0

> <s_lp_Force_Field>
S-OPLS

> <r_lp_Energy>
86.633473

> <b_lp_Chiralities_Consistent>
1

> <s_lp_Variant>
Ceftazidime-1

> <s_epik_input>
W09IXUMoPU8pQyhbQ0gzXSkoW0NIM10pTy9OPUMoYzFbY0hdc2MobjEpW05IMl0pL0MoPU8pW05IXVtDQEBIXTJDKD1PKU4oW0NAQEhdMjMpQyhDKD1PKVtPSF0pPUMoW0NIMl1TMylbQ0gyXVtuK100W2NIXVtjSF1bY0hdW2NIXVtjSF00

> <s_epik_cmdline>
J2VwaWtfcHl0aG9uJywgJy1waHQnLCAnMC4wJywgJy1waCcsICc3LjQnLCAnLW50JywgJy1tYScsICc1MDAnLCAnLWltYWUnLCAnPGluZmlsZS5tYWU+JywgJy1vbWFlJywgJzxvdXRmaWxlLm1hZT4n

> <r_lp_tautomer_probability>
1

> <r_epik_Ionization_Penalty>
  0.0005

> <r_epik_Ionization_Penalty_Charging>
  0.0001

> <r_epik_Ionization_Penalty_Neutral>
  0.0005

> <r_epik_State_Penalty>
  0.0000

> <r_epik_Charging_Adjusted_Penalty>
5.84857251211915e-05

> <i_epik_Tot_Q>
-1

> <i_epik_Tot_abs_Q>
3

> <s_epik_Chemistry_Notes>
This compound has an imine and may undergo hydrolysis. This compound contains an acetal/aminal-like group ( X-CH(R)-Y where X, Y are N, S, or O) that may be acid/base labile, releasing an aldehyde.

> <s_m_subgroup_title>
glide-dock_Nicaido_neutral_pv1

> <s_m_subgroupid>
glide-dock_Nicaido_neutral_pv1

> <b_m_subgroup_collapsed>
0

$$$$
Ceftazidime
                    3D
 Schrodinger Suite 2022-2.
 58 61  0  0  1  0            999 V2000
  -19.2754  -23.8864  -17.6988 C   0  0  0  0  0  0
  -20.6134  -24.4577  -18.1958 C   0  0  0  0  0  0
  -20.7598  -24.1992  -19.7158 C   0  0  0  0  0  0
  -20.6294  -25.9706  -17.8831 C   0  0  0  0  0  0
  -20.0755  -26.7493  -18.6987 O   0  5  0  0  0  0
  -21.1685  -26.3491  -16.8163 O   0  0  0  0  0  0
  -21.6093  -23.7423  -17.4552 O   0  0  0  0  0  0
  -22.9093  -24.1353  -17.8364 N   0  0  0  0  0  0
  -23.7853  -23.2204  -17.6943 C   0  0  0  0  0  0
  -25.2014  -23.5307  -18.1665 C   0  0  0  0  0  0
  -25.9902  -22.4616  -18.3722 N   0  0  0  0  0  0
  -27.2859  -22.4355  -19.0655 C   0  0  1  0  0  0
  -27.4410  -21.1537  -19.9030 C   0  0  2  0  0  0
  -27.4799  -21.9781  -21.1034 N   0  0  0  0  0  0
  -27.4980  -21.4740  -22.4299 C   0  0  0  0  0  0
  -27.9188  -22.5390  -23.5660 C   0  0  0  0  0  0
  -27.5691  -22.3407  -24.7534 O   0  5  0  0  0  0
  -28.5671  -23.5492  -23.2083 O   0  0  0  0  0  0
  -27.1991  -20.1549  -22.6554 C   0  0  0  0  0  0
  -27.2612  -19.4401  -24.0116 C   0  0  0  0  0  0
  -28.5999  -18.8980  -24.3661 N   0  3  0  0  0  0
  -28.7701  -18.4822  -25.6461 C   0  0  0  0  0  0
  -29.9996  -17.9497  -26.0827 C   0  0  0  0  0  0
  -31.0667  -17.8491  -25.1706 C   0  0  0  0  0  0
  -30.8666  -18.2644  -23.8408 C   0  0  0  0  0  0
  -29.6141  -18.7852  -23.4601 C   0  0  0  0  0  0
  -26.7563  -19.1844  -21.5486 C   0  0  0  0  0  0
  -26.0909  -19.9656  -20.0841 S   0  0  0  0  0  0
  -27.3258  -23.1724  -20.4314 C   0  0  0  0  0  0
  -27.1681  -24.3061  -20.8295 O   0  0  0  0  0  0
  -25.5489  -24.6899  -18.4130 O   0  0  0  0  0  0
  -23.4985  -21.8631  -17.1159 C   0  0  0  0  0  0
  -22.7684  -21.7193  -15.9548 C   0  0  0  0  0  0
  -22.3686  -20.0581  -15.6124 S   0  0  0  0  0  0
  -23.3466  -19.5909  -16.9896 C   0  0  0  0  0  0
  -23.5792  -18.2648  -17.3000 N   0  0  0  0  0  0
  -23.8359  -20.6237  -17.6772 N   0  0  0  0  0  0
  -18.4267  -24.3568  -18.1978 H   0  0  0  0  0  0
  -19.2127  -22.8156  -17.8892 H   0  0  0  0  0  0
  -19.1539  -24.0337  -16.6257 H   0  0  0  0  0  0
  -19.8976  -24.5757  -20.2679 H   0  0  0  0  0  0
  -21.6438  -24.6858  -20.1268 H   0  0  0  0  0  0
  -20.8433  -23.1319  -19.9212 H   0  0  0  0  0  0
  -25.5891  -21.5536  -18.1656 H   0  0  0  0  0  0
  -28.1408  -22.6122  -18.4119 H   0  0  0  0  0  0
  -28.3965  -20.6494  -19.7323 H   0  0  0  0  0  0
  -26.5747  -18.5917  -24.0278 H   0  0  0  0  0  0
  -26.9285  -20.0739  -24.8284 H   0  0  0  0  0  0
  -27.9023  -18.5475  -26.2885 H   0  0  0  0  0  0
  -30.1068  -17.5806  -27.0918 H   0  0  0  0  0  0
  -32.0122  -17.4196  -25.4741 H   0  0  0  0  0  0
  -31.6574  -18.1634  -23.1093 H   0  0  0  0  0  0
  -29.4335  -19.1043  -22.4464 H   0  0  0  0  0  0
  -25.9689  -18.5195  -21.9075 H   0  0  0  0  0  0
  -27.5985  -18.5743  -21.2149 H   0  0  0  0  0  0
  -22.3816  -22.5006  -15.3175 H   0  0  0  0  0  0
  -24.3420  -18.0508  -17.9276 H   0  0  0  0  0  0
  -23.4000  -17.5640  -16.5911 H   0  0  0  0  0  0
  1  2  1  0  0  0
  1 38  1  0  0  0
  1 39  1  0  0  0
  1 40  1  0  0  0
  2  3  1  0  0  0
  2  4  1  0  0  0
  2  7  1  0  0  0
  3 41  1  0  0  0
  3 42  1  0  0  0
  3 43  1  0  0  0
  4  5  1  0  0  0
  4  6  2  0  0  0
  7  8  1  0  0  0
  8  9  2  3  0  0
  9 10  1  0  0  0
  9 32  1  0  0  0
 10 11  1  0  0  0
 10 31  2  0  0  0
 11 12  1  0  0  0
 11 44  1  0  0  0
 12 29  1  0  0  0
 12 13  1  0  0  0
 12 45  1  0  0  0
 13 28  1  0  0  0
 13 14  1  0  0  0
 13 46  1  0  0  0
 14 15  1  0  0  0
 14 29  1  0  0  0
 15 16  1  0  0  0
 15 19  2  0  0  0
 16 17  1  0  0  0
 16 18  2  0  0  0
 19 20  1  0  0  0
 19 27  1  0  0  0
 20 21  1  0  0  0
 20 47  1  0  0  0
 20 48  1  0  0  0
 21 26  1  0  0  0
 21 22  2  0  0  0
 22 23  1  0  0  0
 22 49  1  0  0  0
 23 24  2  0  0  0
 23 50  1  0  0  0
 24 25  1  0  0  0
 24 51  1  0  0  0
 25 26  2  0  0  0
 25 52  1  0  0  0
 26 53  1  0  0  0
 27 28  1  0  0  0
 27 54  1  0  0  0
 27 55  1  0  0  0
 29 30  2  0  0  0
 32 37  1  0  0  0
 32 33  2  0  0  0
 33 34  1  0  0  0
 33 56  1  0  0  0
 34 35  1  0  0  0
 35 36  1  0  0  0
 35 37  2  0  0  0
 36 57  1  0  0  0
 36 58  1  0  0  0
M  CHG  3   5  -1  17  -1  21   1
M  END
> <s_m_entry_id>
27256

> <s_m_entry_name>
data_maestro.30

> <s_m_Source_Path>
C:\Users\olshana1\Git\GramNeg-Accumulation\Gram Negative Permeation - OmpF

> <s_m_Source_File>
data_maestro.csv

> <i_m_Source_File_Index>
30

> <s_m_job_name>
glide-dock_Nicaido_neutral

> <s_i_glide_gridfile>
3POX-grid

> <i_i_glide_lignum>
38

> <i_i_glide_rotatable_bonds>
10

> <r_i_docking_score>
-6.05780601160998

> <r_i_glide_ligand_efficiency>
-0.16372448680027

> <r_i_glide_ligand_efficiency_sa>
-0.545566311908713

> <r_i_glide_ligand_efficiency_ln>
-1.31379610879605

> <r_i_glide_gscore>
-6.05780601160998

> <r_i_glide_lipo>
-0.052693354302835

> <r_i_glide_hbond>
-0.977910140562658

> <r_i_glide_metal>
0

> <r_i_glide_rewards>
0.158986644701228

> <r_i_glide_evdw>
-32.1707344055176

> <r_i_glide_ecoul>
-23.4480972290039

> <r_i_glide_erotb>
0.556495996469625

> <r_i_glide_esite>
-0.616933853288876

> <r_i_glide_emodel>
-94.0385491045728

> <r_i_glide_energy>
-55.6188316345215

> <r_i_glide_einternal>
11.4394721984863

> <i_i_glide_confnum>
334

> <i_i_glide_posenum>
58

> <r_i_glide_eff_state_penalty>
0

> <r_glide_res:A132_vdw>
3.36760646583803

> <r_glide_res:A132_coul>
-47.0586952960727

> <r_glide_res:A132_hbond>
-0.237893764069531

> <r_glide_res:A132_dist>
1.78248403363527

> <r_glide_res:A132_Eint>
-43.9289825943042

> <r_glide_res:A117_vdw>
-2.63989890949932

> <r_glide_res:A117_coul>
-8.76465789053043

> <r_glide_res:A117_hbond>
0

> <r_glide_res:A117_dist>
2.28855258564986

> <r_glide_res:A117_Eint>
-11.4045568000297

> <r_glide_res:A113_vdw>
-2.22805725552505

> <r_glide_res:A113_coul>
6.867898003566

> <r_glide_res:A113_hbond>
0

> <r_glide_res:A113_dist>
2.82010900401623

> <r_glide_res:A113_Eint>
4.63984074804095

> <r_glide_res:A82_vdw>
-1.6334320081172

> <r_glide_res:A82_coul>
-43.0365784414508

> <r_glide_res:A82_hbond>
-0.158941713623811

> <r_glide_res:A82_dist>
2.24014773796592

> <r_glide_res:A82_Eint>
-44.8289521631918

> <r_glide_res:A42_vdw>
0.923330106993843

> <r_glide_res:A42_coul>
-36.1604848683589

> <r_glide_res:A42_hbond>
-0.2

> <r_glide_res:A42_dist>
1.70977887232731

> <r_glide_res:A42_Eint>
-35.4371547613651

> <r_glide_res:A16_vdw>
-0.583534055672805

> <r_glide_res:A16_coul>
-7.68038701239946

> <r_glide_res:A16_hbond>
0

> <r_glide_res:A16_dist>
3.43292467256426

> <r_glide_res:A16_Eint>
-8.26392106807226

> <s_m_source_file>
ligprep_Nicaido_neutral.maegz

> <i_m_source_file_index>
30

> <i_lp_mmshare_version>
58128

> <i_f3d_flags>
0

> <s_lp_Force_Field>
S-OPLS

> <r_lp_Energy>
86.633473

> <b_lp_Chiralities_Consistent>
1

> <s_lp_Variant>
Ceftazidime-1

> <s_epik_input>
W09IXUMoPU8pQyhbQ0gzXSkoW0NIM10pTy9OPUMoYzFbY0hdc2MobjEpW05IMl0pL0MoPU8pW05IXVtDQEBIXTJDKD1PKU4oW0NAQEhdMjMpQyhDKD1PKVtPSF0pPUMoW0NIMl1TMylbQ0gyXVtuK100W2NIXVtjSF1bY0hdW2NIXVtjSF00

> <s_epik_cmdline>
J2VwaWtfcHl0aG9uJywgJy1waHQnLCAnMC4wJywgJy1waCcsICc3LjQnLCAnLW50JywgJy1tYScsICc1MDAnLCAnLWltYWUnLCAnPGluZmlsZS5tYWU+JywgJy1vbWFlJywgJzxvdXRmaWxlLm1hZT4n

> <r_lp_tautomer_probability>
1

> <r_epik_Ionization_Penalty>
  0.0005

> <r_epik_Ionization_Penalty_Charging>
  0.0001

> <r_epik_Ionization_Penalty_Neutral>
  0.0005

> <r_epik_State_Penalty>
  0.0000

> <r_epik_Charging_Adjusted_Penalty>
5.84857251211915e-05

> <i_epik_Tot_Q>
-1

> <i_epik_Tot_abs_Q>
3

> <s_epik_Chemistry_Notes>
This compound has an imine and may undergo hydrolysis. This compound contains an acetal/aminal-like group ( X-CH(R)-Y where X, Y are N, S, or O) that may be acid/base labile, releasing an aldehyde.

> <s_m_subgroup_title>
glide-dock_Nicaido_neutral_pv1

> <s_m_subgroupid>
glide-dock_Nicaido_neutral_pv1

> <b_m_subgroup_collapsed>
0

$$$$
Cefoperazone
                    3D
 Schrodinger Suite 2022-2.
 70 74  0  0  1  0            999 V2000
  -35.7144  -28.9049  -20.6777 C   0  0  0  0  0  0
  -35.6069  -27.3795  -20.4996 C   0  0  0  0  0  0
  -35.7406  -26.6660  -21.7774 N   0  0  0  0  0  0
  -34.5240  -26.0592  -22.3208 C   0  0  0  0  0  0
  -34.8543  -24.7871  -23.1162 C   0  0  0  0  0  0
  -35.9158  -25.0212  -24.1275 N   0  0  0  0  0  0
  -36.9502  -25.8646  -23.8155 C   0  0  0  0  0  0
  -36.9329  -26.5657  -22.4143 C   0  0  0  0  0  0
  -37.9869  -27.0241  -21.9646 O   0  0  0  0  0  0
  -37.8815  -26.1533  -24.5744 O   0  0  0  0  0  0
  -35.9663  -24.2194  -25.2302 C   0  0  0  0  0  0
  -34.7664  -23.9813  -25.7879 N   0  0  0  0  0  0
  -34.5144  -23.1613  -26.9776 C   0  0  2  0  0  0
  -33.8273  -23.9960  -28.0190 C   0  0  0  0  0  0
  -34.1461  -23.8216  -29.3870 C   0  0  0  0  0  0
  -33.5306  -24.5895  -30.3933 C   0  0  0  0  0  0
  -32.5693  -25.5557  -30.0496 C   0  0  0  0  0  0
  -32.2331  -25.7527  -28.6994 C   0  0  0  0  0  0
  -32.8546  -24.9789  -27.7003 C   0  0  0  0  0  0
  -31.9690  -26.3030  -31.0196 O   0  0  0  0  0  0
  -33.5446  -21.9957  -26.6987 C   0  0  0  0  0  0
  -33.0984  -21.8400  -25.4426 N   0  0  0  0  0  0
  -32.0135  -20.9442  -25.0557 C   0  0  1  0  0  0
  -31.6055  -21.1431  -23.5894 C   0  0  1  0  0  0
  -30.2645  -21.4272  -24.0627 N   0  0  0  0  0  0
  -30.6215  -21.5229  -25.3965 C   0  0  0  0  0  0
  -30.0585  -21.9496  -26.3822 O   0  0  0  0  0  0
  -29.2361  -21.7743  -23.1673 C   0  0  0  0  0  0
  -28.1038  -22.6908  -23.7320 C   0  0  0  0  0  0
  -27.5694  -22.3496  -24.8121 O   0  5  0  0  0  0
  -27.8865  -23.7436  -23.0836 O   0  0  0  0  0  0
  -29.2184  -21.3230  -21.8838 C   0  0  0  0  0  0
  -30.3427  -20.4944  -21.2708 C   0  0  0  0  0  0
  -31.5021  -19.7498  -22.4449 S   0  0  0  0  0  0
  -28.0957  -21.6194  -20.8887 C   0  0  0  0  0  0
  -28.4814  -23.0054  -19.7816 S   0  0  0  0  0  0
  -26.8888  -23.2344  -19.0650 C   0  0  0  0  0  0
  -26.1795  -24.3496  -19.1934 N   0  0  0  0  0  0
  -25.0237  -24.0943  -18.4835 N   0  0  0  0  0  0
  -25.0415  -22.8989  -17.9686 N   0  0  0  0  0  0
  -26.2230  -22.3352  -18.3235 N   0  0  0  0  0  0
  -26.5526  -20.9882  -17.9003 C   0  0  0  0  0  0
  -33.1698  -21.2657  -27.6158 O   0  0  0  0  0  0
  -37.0047  -23.7895  -25.7370 O   0  0  0  0  0  0
  -35.5513  -29.4156  -19.7301 H   0  0  0  0  0  0
  -34.9749  -29.2718  -21.3903 H   0  0  0  0  0  0
  -36.6995  -29.2013  -21.0420 H   0  0  0  0  0  0
  -36.3787  -27.0369  -19.8047 H   0  0  0  0  0  0
  -34.6552  -27.1456  -20.0158 H   0  0  0  0  0  0
  -33.8183  -25.8086  -21.5265 H   0  0  0  0  0  0
  -34.0311  -26.7917  -22.9626 H   0  0  0  0  0  0
  -35.2093  -24.0128  -22.4326 H   0  0  0  0  0  0
  -33.9194  -24.4066  -23.5260 H   0  0  0  0  0  0
  -33.9700  -24.4318  -25.3685 H   0  0  0  0  0  0
  -35.4399  -22.7362  -27.3701 H   0  0  0  0  0  0
  -34.8803  -23.0820  -29.6748 H   0  0  0  0  0  0
  -33.8019  -24.4298  -31.4275 H   0  0  0  0  0  0
  -31.5120  -26.5096  -28.4258 H   0  0  0  0  0  0
  -32.5731  -25.1523  -26.6716 H   0  0  0  0  0  0
  -32.3444  -26.1463  -31.8735 H   0  0  0  0  0  0
  -33.4915  -22.4283  -24.7242 H   0  0  0  0  0  0
  -32.1680  -19.8970  -25.3199 H   0  0  0  0  0  0
  -32.0456  -22.0217  -23.1104 H   0  0  0  0  0  0
  -30.8928  -21.1484  -20.5924 H   0  0  0  0  0  0
  -29.9147  -19.6675  -20.7083 H   0  0  0  0  0  0
  -27.1536  -21.8182  -21.3983 H   0  0  0  0  0  0
  -27.9224  -20.7226  -20.2960 H   0  0  0  0  0  0
  -27.6137  -20.9177  -17.6591 H   0  0  0  0  0  0
  -25.9684  -20.7172  -17.0216 H   0  0  0  0  0  0
  -26.3178  -20.2826  -18.6967 H   0  0  0  0  0  0
  1  2  1  0  0  0
  1 45  1  0  0  0
  1 46  1  0  0  0
  1 47  1  0  0  0
  2  3  1  0  0  0
  2 48  1  0  0  0
  2 49  1  0  0  0
  3  8  1  0  0  0
  3  4  1  0  0  0
  4  5  1  0  0  0
  4 50  1  0  0  0
  4 51  1  0  0  0
  5  6  1  0  0  0
  5 52  1  0  0  0
  5 53  1  0  0  0
  6  7  1  0  0  0
  6 11  1  0  0  0
  7  8  1  0  0  0
  7 10  2  0  0  0
  8  9  2  0  0  0
 11 12  1  0  0  0
 11 44  2  0  0  0
 12 13  1  0  0  0
 12 54  1  0  0  0
 13 14  1  0  0  0
 13 21  1  0  0  0
 13 55  1  0  0  0
 14 19  1  0  0  0
 14 15  2  0  0  0
 15 16  1  0  0  0
 15 56  1  0  0  0
 16 17  2  0  0  0
 16 57  1  0  0  0
 17 18  1  0  0  0
 17 20  1  0  0  0
 18 19  2  0  0  0
 18 58  1  0  0  0
 19 59  1  0  0  0
 20 60  1  0  0  0
 21 22  1  0  0  0
 21 43  2  0  0  0
 22 23  1  0  0  0
 22 61  1  0  0  0
 23 26  1  0  0  0
 23 24  1  0  0  0
 23 62  1  0  0  0
 24 34  1  0  0  0
 24 25  1  0  0  0
 24 63  1  0  0  0
 25 26  1  0  0  0
 25 28  1  0  0  0
 26 27  2  0  0  0
 28 29  1  0  0  0
 28 32  2  0  0  0
 29 30  1  0  0  0
 29 31  2  0  0  0
 32 33  1  0  0  0
 32 35  1  0  0  0
 33 34  1  0  0  0
 33 64  1  0  0  0
 33 65  1  0  0  0
 35 36  1  0  0  0
 35 66  1  0  0  0
 35 67  1  0  0  0
 36 37  1  0  0  0
 37 41  1  0  0  0
 37 38  2  0  0  0
 38 39  1  0  0  0
 39 40  2  0  0  0
 40 41  1  0  0  0
 41 42  1  0  0  0
 42 68  1  0  0  0
 42 69  1  0  0  0
 42 70  1  0  0  0
M  CHG  1  30  -1
M  END
> <s_m_entry_id>
27257

> <s_m_entry_name>
data_maestro.8

> <s_m_Source_Path>
C:\Users\olshana1\Git\GramNeg-Accumulation\Gram Negative Permeation - OmpF

> <s_m_Source_File>
data_maestro.csv

> <i_m_Source_File_Index>
8

> <s_m_job_name>
glide-dock_Nicaido_neutral

> <s_i_glide_gridfile>
3POX-grid

> <i_i_glide_lignum>
11

> <i_i_glide_rotatable_bonds>
13

> <r_i_docking_score>
-6.04819956067891

> <r_i_glide_ligand_efficiency>
-0.137459080924521

> <r_i_glide_ligand_efficiency_sa>
-0.485278436905203

> <r_i_glide_ligand_efficiency_ln>
-1.26420564891476

> <r_i_glide_gscore>
-6.04819956067891

> <r_i_glide_lipo>
-0.437593935337507

> <r_i_glide_hbond>
-0.835925435896791

> <r_i_glide_metal>
0

> <r_i_glide_rewards>
-0.00150348140811731

> <r_i_glide_evdw>
-35.6459121704102

> <r_i_glide_ecoul>
-18.0830879211426

> <r_i_glide_erotb>
0.362700252817045

> <r_i_glide_esite>
-0.641118164161641

> <r_i_glide_emodel>
-86.1640631770454

> <r_i_glide_energy>
-53.7290000915527

> <r_i_glide_einternal>
9.80158138275146

> <i_i_glide_confnum>
103

> <i_i_glide_posenum>
150

> <r_i_glide_eff_state_penalty>
0

> <r_glide_res:A132_vdw>
-2.04842464104598

> <r_glide_res:A132_coul>
-32.8315978885732

> <r_glide_res:A132_hbond>
0

> <r_glide_res:A132_dist>
2.21011710070366

> <r_glide_res:A132_Eint>
-34.8800225296192

> <r_glide_res:A117_vdw>
-1.04985811416004

> <r_glide_res:A117_coul>
24.0037793898976

> <r_glide_res:A117_hbond>
0

> <r_glide_res:A117_dist>
4.35526941959119

> <r_glide_res:A117_Eint>
22.9539212757375

> <r_glide_res:A113_vdw>
-1.13988049975227

> <r_glide_res:A113_coul>
13.8704135218761

> <r_glide_res:A113_hbond>
0

> <r_glide_res:A113_dist>
2.27991942052128

> <r_glide_res:A113_Eint>
12.7305330221238

> <r_glide_res:A82_vdw>
-0.0902526919110778

> <r_glide_res:A82_coul>
-43.0170517488001

> <r_glide_res:A82_hbond>
-0.2

> <r_glide_res:A82_dist>
1.76187428411559

> <r_glide_res:A82_Eint>
-43.3073044407112

> <r_glide_res:A42_vdw>
-0.540596696074587

> <r_glide_res:A42_coul>
-52.5108737073228

> <r_glide_res:A42_hbond>
-0.323324558966724

> <r_glide_res:A42_dist>
1.65871313447915

> <r_glide_res:A42_Eint>
-53.3747949623641

> <r_glide_res:A16_vdw>
-2.88932331035191

> <r_glide_res:A16_coul>
-42.6124094336328

> <r_glide_res:A16_hbond>
-0.312600876930066

> <r_glide_res:A16_dist>
1.86036330152021

> <r_glide_res:A16_Eint>
-45.8143336209148

> <s_m_source_file>
ligprep_Nicaido_neutral.maegz

> <i_m_source_file_index>
8

> <i_lp_mmshare_version>
58128

> <i_f3d_flags>
0

> <s_lp_Force_Field>
S-OPLS

> <r_lp_Energy>
85.319288

> <b_lp_Chiralities_Consistent>
1

> <s_lp_Variant>
Cefoperazone-1

> <s_epik_input>
W0NIM11bQ0gyXU4xW0NIMl1bQ0gyXU4oQyg9TylDMT1PKUMoPU8pW05IXVtDQEhdKGMyW2NIXVtjSF1jKFtPSF0pW2NIXVtjSF0yKUMoPU8pW05IXVtDQEBIXTNDKD1PKU4oW0NASF0zNClDKEMoPU8pW09IXSk9QyhbQ0gyXVM0KVtDSDJdU2M1bm5ubjVbQ0gzXQ==

> <s_epik_cmdline>
J2VwaWtfcHl0aG9uJywgJy1waHQnLCAnMC4wJywgJy1waCcsICc3LjQnLCAnLW50JywgJy1tYScsICc1MDAnLCAnLWltYWUnLCAnPGluZmlsZS5tYWU+JywgJy1vbWFlJywgJzxvdXRmaWxlLm1hZT4n

> <r_lp_tautomer_probability>
1

> <r_epik_Ionization_Penalty>
  0.0158

> <r_epik_Ionization_Penalty_Charging>
  0.0000

> <r_epik_Ionization_Penalty_Neutral>
  0.0158

> <r_epik_State_Penalty>
  0.0000

> <r_epik_Charging_Adjusted_Penalty>
8.23416745038905e-06

> <i_epik_Tot_Q>
-1

> <i_epik_Tot_abs_Q>
1

> <s_epik_Chemistry_Notes>
This compound contains an acetal/aminal-like group ( X-CH(R)-Y where X, Y are N, S, or O) that may be acid/base labile, releasing an aldehyde.

> <s_m_subgroup_title>
glide-dock_Nicaido_neutral_pv1

> <s_m_subgroupid>
glide-dock_Nicaido_neutral_pv1

> <b_m_subgroup_collapsed>
0

$$$$
Ceftazidime
                    3D
 Schrodinger Suite 2022-2.
 58 61  0  0  1  0            999 V2000
  -34.7466  -25.0721  -24.4482 C   0  0  0  0  0  0
  -33.5802  -25.4344  -23.4971 C   0  0  0  0  0  0
  -34.0223  -25.3568  -22.0127 C   0  0  0  0  0  0
  -33.1707  -26.8995  -23.7747 C   0  0  0  0  0  0
  -31.9689  -27.1492  -24.0136 O   0  5  0  0  0  0
  -34.0512  -27.7796  -23.6556 O   0  0  0  0  0  0
  -32.4577  -24.5611  -23.7277 O   0  0  0  0  0  0
  -32.8140  -23.2278  -23.4310 N   0  0  0  0  0  0
  -31.8517  -22.3923  -23.4411 C   0  0  0  0  0  0
  -30.3947  -22.6600  -23.8105 C   0  0  0  0  0  0
  -29.5338  -21.8414  -23.1806 N   0  0  0  0  0  0
  -28.0851  -21.9678  -23.2127 C   0  0  1  0  0  0
  -27.3932  -21.0520  -22.1854 C   0  0  2  0  0  0
  -27.1601  -22.2431  -21.3820 N   0  0  0  0  0  0
  -26.5230  -22.1651  -20.1367 C   0  0  0  0  0  0
  -25.4048  -23.2293  -19.8119 C   0  0  0  0  0  0
  -24.4994  -22.8834  -19.0233 O   0  5  0  0  0  0
  -25.5078  -24.3478  -20.3639 O   0  0  0  0  0  0
  -26.9858  -21.2469  -19.2522 C   0  0  0  0  0  0
  -26.4950  -21.0849  -17.8176 C   0  0  0  0  0  0
  -25.2411  -20.3009  -17.7382 N   0  3  0  0  0  0
  -25.1226  -19.1310  -18.4208 C   0  0  0  0  0  0
  -23.9568  -18.3475  -18.3148 C   0  0  0  0  0  0
  -22.9023  -18.7937  -17.4959 C   0  0  0  0  0  0
  -23.0415  -20.0130  -16.8055 C   0  0  0  0  0  0
  -24.2366  -20.7497  -16.9416 C   0  0  0  0  0  0
  -28.2499  -20.4525  -19.5674 C   0  0  0  0  0  0
  -28.2789  -19.7563  -21.2390 S   0  0  0  0  0  0
  -27.5749  -23.1405  -22.3442 C   0  0  0  0  0  0
  -27.5671  -24.3495  -22.4088 O   0  0  0  0  0  0
  -30.0324  -23.5323  -24.6043 O   0  0  0  0  0  0
  -32.1251  -20.9881  -23.0683 C   0  0  0  0  0  0
  -32.3029  -20.6036  -21.7581 C   0  0  0  0  0  0
  -32.5156  -18.8784  -21.6133 S   0  0  0  0  0  0
  -32.3777  -18.7593  -23.3577 C   0  0  0  0  0  0
  -32.4712  -17.5497  -24.0137 N   0  0  0  0  0  0
  -32.1641  -19.9204  -23.9710 N   0  0  0  0  0  0
  -35.5770  -25.7721  -24.3520 H   0  0  0  0  0  0
  -35.1512  -24.0814  -24.2402 H   0  0  0  0  0  0
  -34.4197  -25.0862  -25.4886 H   0  0  0  0  0  0
  -34.7875  -26.0990  -21.7781 H   0  0  0  0  0  0
  -33.1773  -25.5330  -21.3438 H   0  0  0  0  0  0
  -34.4481  -24.3862  -21.7588 H   0  0  0  0  0  0
  -29.9020  -21.1410  -22.5487 H   0  0  0  0  0  0
  -27.6472  -21.8893  -24.2078 H   0  0  0  0  0  0
  -26.4460  -20.6586  -22.5590 H   0  0  0  0  0  0
  -27.2299  -20.5540  -17.2150 H   0  0  0  0  0  0
  -26.3468  -22.0599  -17.3485 H   0  0  0  0  0  0
  -25.9695  -18.8227  -19.0147 H   0  0  0  0  0  0
  -23.8788  -17.4085  -18.8450 H   0  0  0  0  0  0
  -22.0036  -18.2007  -17.3903 H   0  0  0  0  0  0
  -22.2500  -20.3691  -16.1618 H   0  0  0  0  0  0
  -24.4062  -21.6829  -16.4254 H   0  0  0  0  0  0
  -29.1004  -21.1287  -19.4490 H   0  0  0  0  0  0
  -28.3838  -19.6277  -18.8700 H   0  0  0  0  0  0
  -32.2954  -21.2136  -20.8629 H   0  0  0  0  0  0
  -32.0723  -17.4788  -24.9361 H   0  0  0  0  0  0
  -32.3680  -16.7119  -23.4411 H   0  0  0  0  0  0
  1  2  1  0  0  0
  1 38  1  0  0  0
  1 39  1  0  0  0
  1 40  1  0  0  0
  2  3  1  0  0  0
  2  4  1  0  0  0
  2  7  1  0  0  0
  3 41  1  0  0  0
  3 42  1  0  0  0
  3 43  1  0  0  0
  4  5  1  0  0  0
  4  6  2  0  0  0
  7  8  1  0  0  0
  8  9  2  3  0  0
  9 10  1  0  0  0
  9 32  1  0  0  0
 10 11  1  0  0  0
 10 31  2  0  0  0
 11 12  1  0  0  0
 11 44  1  0  0  0
 12 29  1  0  0  0
 12 13  1  0  0  0
 12 45  1  0  0  0
 13 28  1  0  0  0
 13 14  1  0  0  0
 13 46  1  0  0  0
 14 15  1  0  0  0
 14 29  1  0  0  0
 15 16  1  0  0  0
 15 19  2  0  0  0
 16 17  1  0  0  0
 16 18  2  0  0  0
 19 20  1  0  0  0
 19 27  1  0  0  0
 20 21  1  0  0  0
 20 47  1  0  0  0
 20 48  1  0  0  0
 21 26  1  0  0  0
 21 22  2  0  0  0
 22 23  1  0  0  0
 22 49  1  0  0  0
 23 24  2  0  0  0
 23 50  1  0  0  0
 24 25  1  0  0  0
 24 51  1  0  0  0
 25 26  2  0  0  0
 25 52  1  0  0  0
 26 53  1  0  0  0
 27 28  1  0  0  0
 27 54  1  0  0  0
 27 55  1  0  0  0
 29 30  2  0  0  0
 32 37  1  0  0  0
 32 33  2  0  0  0
 33 34  1  0  0  0
 33 56  1  0  0  0
 34 35  1  0  0  0
 35 36  1  0  0  0
 35 37  2  0  0  0
 36 57  1  0  0  0
 36 58  1  0  0  0
M  CHG  3   5  -1  17  -1  21   1
M  END
> <s_m_entry_id>
27258

> <s_m_entry_name>
data_maestro.30

> <s_m_Source_Path>
C:\Users\olshana1\Git\GramNeg-Accumulation\Gram Negative Permeation - OmpF

> <s_m_Source_File>
data_maestro.csv

> <i_m_Source_File_Index>
30

> <s_m_job_name>
glide-dock_Nicaido_neutral

> <s_i_glide_gridfile>
3POX-grid

> <i_i_glide_lignum>
39

> <i_i_glide_rotatable_bonds>
10

> <r_i_docking_score>
-6.04628041594157

> <r_i_glide_ligand_efficiency>
-0.163412984214637

> <r_i_glide_ligand_efficiency_sa>
-0.544528316187273

> <r_i_glide_ligand_efficiency_ln>
-1.31129647729387

> <r_i_glide_gscore>
-6.04628041594157

> <r_i_glide_lipo>
-0.022589938165807

> <r_i_glide_hbond>
-1.04545026810237

> <r_i_glide_metal>
0

> <r_i_glide_rewards>
-0.222055744442745

> <r_i_glide_evdw>
-25.6386127471924

> <r_i_glide_ecoul>
-22.6412582397461

> <r_i_glide_erotb>
0.556495996469625

> <r_i_glide_esite>
-0.63456108837874

> <r_i_glide_emodel>
-87.861475314397

> <r_i_glide_energy>
-48.2798709869385

> <r_i_glide_einternal>
8.10933208465576

> <i_i_glide_confnum>
233

> <i_i_glide_posenum>
265

> <r_i_glide_eff_state_penalty>
0

> <r_glide_res:A132_vdw>
3.97635025005805

> <r_glide_res:A132_coul>
-57.7168873341815

> <r_glide_res:A132_hbond>
-0.179302843335478

> <r_glide_res:A132_dist>
1.54522188877047

> <r_glide_res:A132_Eint>
-53.9198399274589

> <r_glide_res:A117_vdw>
-2.1447738520012

> <r_glide_res:A117_coul>
9.67830601513985

> <r_glide_res:A117_hbond>
0

> <r_glide_res:A117_dist>
3.43726144770287

> <r_glide_res:A117_Eint>
7.53353216313865

> <r_glide_res:A113_vdw>
-3.93372113993541

> <r_glide_res:A113_coul>
8.09124512572834

> <r_glide_res:A113_hbond>
0

> <r_glide_res:A113_dist>
2.31996435521656

> <r_glide_res:A113_Eint>
4.15752398579294

> <r_glide_res:A82_vdw>
3.98525696677246

> <r_glide_res:A82_coul>
-66.087141113874

> <r_glide_res:A82_hbond>
-0.311214514385761

> <r_glide_res:A82_dist>
1.58220038228523

> <r_glide_res:A82_Eint>
-62.4130986614873

> <r_glide_res:A42_vdw>
-1.61538292871411

> <r_glide_res:A42_coul>
-34.1860000519184

> <r_glide_res:A42_hbond>
-0.11431430602798

> <r_glide_res:A42_dist>
2.20274995065832

> <r_glide_res:A42_Eint>
-35.9156972866604

> <r_glide_res:A16_vdw>
-0.537798501735155

> <r_glide_res:A16_coul>
-23.7500116485592

> <r_glide_res:A16_hbond>
0

> <r_glide_res:A16_dist>
4.24838486908899

> <r_glide_res:A16_Eint>
-24.2878101502943

> <s_m_source_file>
ligprep_Nicaido_neutral.maegz

> <i_m_source_file_index>
30

> <i_lp_mmshare_version>
58128

> <i_f3d_flags>
0

> <s_lp_Force_Field>
S-OPLS

> <r_lp_Energy>
82.572273

> <b_lp_Chiralities_Consistent>
1

> <s_lp_Variant>
Ceftazidime-2

> <s_epik_input>
W09IXUMoPU8pQyhbQ0gzXSkoW0NIM10pTy9OPUMoYzFbY0hdc2MobjEpW05IMl0pL0MoPU8pW05IXVtDQEBIXTJDKD1PKU4oW0NAQEhdMjMpQyhDKD1PKVtPSF0pPUMoW0NIMl1TMylbQ0gyXVtuK100W2NIXVtjSF1bY0hdW2NIXVtjSF00

> <s_epik_cmdline>
J2VwaWtfcHl0aG9uJywgJy1waHQnLCAnMC4wJywgJy1waCcsICc3LjQnLCAnLW50JywgJy1tYScsICc1MDAnLCAnLWltYWUnLCAnPGluZmlsZS5tYWU+JywgJy1vbWFlJywgJzxvdXRmaWxlLm1hZT4n

> <r_lp_tautomer_probability>
1

> <r_epik_Ionization_Penalty>
  0.0005

> <r_epik_Ionization_Penalty_Charging>
  0.0001

> <r_epik_Ionization_Penalty_Neutral>
  0.0005

> <r_epik_State_Penalty>
  0.0000

> <r_epik_Charging_Adjusted_Penalty>
5.84857251211915e-05

> <i_epik_Tot_Q>
-1

> <i_epik_Tot_abs_Q>
3

> <s_epik_Chemistry_Notes>
This compound has an imine and may undergo hydrolysis. This compound contains an acetal/aminal-like group ( X-CH(R)-Y where X, Y are N, S, or O) that may be acid/base labile, releasing an aldehyde.

> <s_m_subgroup_title>
glide-dock_Nicaido_neutral_pv1

> <s_m_subgroupid>
glide-dock_Nicaido_neutral_pv1

> <b_m_subgroup_collapsed>
0

$$$$
Cefoperazone
                    3D
 Schrodinger Suite 2022-2.
 70 74  0  0  1  0            999 V2000
  -35.6326  -31.4900  -22.9626 C   0  0  0  0  0  0
  -36.9214  -30.6533  -23.0016 C   0  0  0  0  0  0
  -36.6653  -29.3134  -23.5419 N   0  0  0  0  0  0
  -36.5441  -28.2259  -22.5683 C   0  0  0  0  0  0
  -36.9706  -26.8828  -23.1894 C   0  0  0  0  0  0
  -36.2670  -26.6285  -24.4654 N   0  0  0  0  0  0
  -36.0759  -27.6780  -25.3300 C   0  0  0  0  0  0
  -36.5493  -29.0927  -24.8722 C   0  0  0  0  0  0
  -36.7691  -29.9495  -25.7295 O   0  0  0  0  0  0
  -35.5887  -27.5990  -26.4612 O   0  0  0  0  0  0
  -35.9163  -25.3303  -24.7200 C   0  0  0  0  0  0
  -34.8971  -25.1403  -25.5760 N   0  0  0  0  0  0
  -34.5168  -23.8770  -26.1981 C   0  0  2  0  0  0
  -34.1205  -24.1839  -27.6141 C   0  0  0  0  0  0
  -34.6118  -23.4034  -28.6886 C   0  0  0  0  0  0
  -34.3005  -23.7119  -30.0288 C   0  0  0  0  0  0
  -33.4716  -24.8101  -30.3235 C   0  0  0  0  0  0
  -32.9529  -25.5886  -29.2765 C   0  0  0  0  0  0
  -33.2777  -25.2792  -27.9442 C   0  0  0  0  0  0
  -33.1693  -25.1343  -31.6135 O   0  0  0  0  0  0
  -33.2503  -23.2952  -25.5491 C   0  0  0  0  0  0
  -33.1980  -21.9501  -25.4511 N   0  0  0  0  0  0
  -32.1001  -21.1064  -24.9499 C   0  0  1  0  0  0
  -31.6438  -21.4287  -23.5111 C   0  0  1  0  0  0
  -30.2922  -21.4715  -24.0442 N   0  0  0  0  0  0
  -30.6883  -21.5712  -25.3721 C   0  0  0  0  0  0
  -30.1597  -21.9494  -26.3992 O   0  0  0  0  0  0
  -29.2734  -21.8636  -23.1650 C   0  0  0  0  0  0
  -28.3473  -23.0244  -23.6265 C   0  0  0  0  0  0
  -27.9689  -22.9624  -24.8128 O   0  5  0  0  0  0
  -28.1043  -23.9495  -22.8134 O   0  0  0  0  0  0
  -29.0871  -21.1563  -22.0277 C   0  0  0  0  0  0
  -29.9768  -19.9546  -21.7238 C   0  0  0  0  0  0
  -31.7377  -20.1996  -22.1496 S   0  0  0  0  0  0
  -27.8963  -21.3476  -21.0905 C   0  0  0  0  0  0
  -28.2419  -22.4405  -19.6830 S   0  0  0  0  0  0
  -26.6075  -23.0496  -19.4349 C   0  0  0  0  0  0
  -26.0093  -23.9496  -20.2069 N   0  0  0  0  0  0
  -24.7754  -24.1356  -19.6141 N   0  0  0  0  0  0
  -24.6463  -23.3957  -18.5539 N   0  0  0  0  0  0
  -25.7996  -22.6937  -18.4275 N   0  0  0  0  0  0
  -25.9694  -21.7786  -17.3249 C   0  0  0  0  0  0
  -32.3512  -24.0456  -25.1628 O   0  0  0  0  0  0
  -36.4586  -24.3721  -24.1675 O   0  0  0  0  0  0
  -35.8281  -32.4846  -22.5599 H   0  0  0  0  0  0
  -34.8782  -31.0176  -22.3337 H   0  0  0  0  0  0
  -35.2112  -31.6212  -23.9602 H   0  0  0  0  0  0
  -37.6718  -31.1658  -23.6054 H   0  0  0  0  0  0
  -37.3419  -30.5927  -21.9969 H   0  0  0  0  0  0
  -37.1511  -28.4214  -21.6830 H   0  0  0  0  0  0
  -35.5076  -28.1751  -22.2303 H   0  0  0  0  0  0
  -38.0474  -26.8811  -23.3748 H   0  0  0  0  0  0
  -36.7902  -26.1031  -22.4454 H   0  0  0  0  0  0
  -34.4851  -25.9709  -25.9793 H   0  0  0  0  0  0
  -35.3372  -23.1572  -26.1657 H   0  0  0  0  0  0
  -35.2628  -22.5654  -28.4894 H   0  0  0  0  0  0
  -34.7104  -23.1055  -30.8239 H   0  0  0  0  0  0
  -32.3209  -26.4377  -29.4908 H   0  0  0  0  0  0
  -32.8748  -25.9075  -27.1633 H   0  0  0  0  0  0
  -33.6731  -24.6567  -32.2577 H   0  0  0  0  0  0
  -34.0129  -21.4471  -25.7714 H   0  0  0  0  0  0
  -32.2821  -20.0384  -25.0885 H   0  0  0  0  0  0
  -31.9510  -22.4148  -23.1500 H   0  0  0  0  0  0
  -29.9015  -19.6874  -20.6734 H   0  0  0  0  0  0
  -29.5936  -19.0994  -22.2832 H   0  0  0  0  0  0
  -27.0447  -21.7382  -21.6462 H   0  0  0  0  0  0
  -27.5696  -20.3778  -20.7116 H   0  0  0  0  0  0
  -26.9126  -21.2384  -17.4181 H   0  0  0  0  0  0
  -25.9694  -22.3494  -16.3993 H   0  0  0  0  0  0
  -25.1526  -21.0571  -17.3053 H   0  0  0  0  0  0
  1  2  1  0  0  0
  1 45  1  0  0  0
  1 46  1  0  0  0
  1 47  1  0  0  0
  2  3  1  0  0  0
  2 48  1  0  0  0
  2 49  1  0  0  0
  3  8  1  0  0  0
  3  4  1  0  0  0
  4  5  1  0  0  0
  4 50  1  0  0  0
  4 51  1  0  0  0
  5  6  1  0  0  0
  5 52  1  0  0  0
  5 53  1  0  0  0
  6  7  1  0  0  0
  6 11  1  0  0  0
  7  8  1  0  0  0
  7 10  2  0  0  0
  8  9  2  0  0  0
 11 12  1  0  0  0
 11 44  2  0  0  0
 12 13  1  0  0  0
 12 54  1  0  0  0
 13 14  1  0  0  0
 13 21  1  0  0  0
 13 55  1  0  0  0
 14 19  1  0  0  0
 14 15  2  0  0  0
 15 16  1  0  0  0
 15 56  1  0  0  0
 16 17  2  0  0  0
 16 57  1  0  0  0
 17 18  1  0  0  0
 17 20  1  0  0  0
 18 19  2  0  0  0
 18 58  1  0  0  0
 19 59  1  0  0  0
 20 60  1  0  0  0
 21 22  1  0  0  0
 21 43  2  0  0  0
 22 23  1  0  0  0
 22 61  1  0  0  0
 23 26  1  0  0  0
 23 24  1  0  0  0
 23 62  1  0  0  0
 24 34  1  0  0  0
 24 25  1  0  0  0
 24 63  1  0  0  0
 25 26  1  0  0  0
 25 28  1  0  0  0
 26 27  2  0  0  0
 28 29  1  0  0  0
 28 32  2  0  0  0
 29 30  1  0  0  0
 29 31  2  0  0  0
 32 33  1  0  0  0
 32 35  1  0  0  0
 33 34  1  0  0  0
 33 64  1  0  0  0
 33 65  1  0  0  0
 35 36  1  0  0  0
 35 66  1  0  0  0
 35 67  1  0  0  0
 36 37  1  0  0  0
 37 41  1  0  0  0
 37 38  2  0  0  0
 38 39  1  0  0  0
 39 40  2  0  0  0
 40 41  1  0  0  0
 41 42  1  0  0  0
 42 68  1  0  0  0
 42 69  1  0  0  0
 42 70  1  0  0  0
M  CHG  1  30  -1
M  END
> <s_m_entry_id>
27259

> <s_m_entry_name>
data_maestro.8

> <s_m_Source_Path>
C:\Users\olshana1\Git\GramNeg-Accumulation\Gram Negative Permeation - OmpF

> <s_m_Source_File>
data_maestro.csv

> <i_m_Source_File_Index>
8

> <s_m_job_name>
glide-dock_Nicaido_neutral

> <s_i_glide_gridfile>
3POX-grid

> <i_i_glide_lignum>
11

> <i_i_glide_rotatable_bonds>
13

> <r_i_docking_score>
-6.04482314203302

> <r_i_glide_ligand_efficiency>
-0.137382344137114

> <r_i_glide_ligand_efficiency_sa>
-0.485007529315866

> <r_i_glide_ligand_efficiency_ln>
-1.26349990376161

> <r_i_glide_gscore>
-6.04482314203302

> <r_i_glide_lipo>
-0.312874056422613

> <r_i_glide_hbond>
-1.10471516337224

> <r_i_glide_metal>
0

> <r_i_glide_rewards>
0.0167355701748181

> <r_i_glide_evdw>
-34.1588859558105

> <r_i_glide_ecoul>
-17.7350521087646

> <r_i_glide_erotb>
0.362700252817045

> <r_i_glide_esite>
-0.638467631124807

> <r_i_glide_emodel>
-83.1563679130708

> <r_i_glide_energy>
-51.8939380645752

> <r_i_glide_einternal>
12.0242338180542

> <i_i_glide_confnum>
611

> <i_i_glide_posenum>
247

> <r_i_glide_eff_state_penalty>
0

> <r_glide_res:A132_vdw>
-1.0465450042708

> <r_glide_res:A132_coul>
-40.4552577512439

> <r_glide_res:A132_hbond>
0

> <r_glide_res:A132_dist>
1.90855747941295

> <r_glide_res:A132_Eint>
-41.5018027555147

> <r_glide_res:A117_vdw>
-1.09700272648778

> <r_glide_res:A117_coul>
22.2080416723081

> <r_glide_res:A117_hbond>
0

> <r_glide_res:A117_dist>
3.31979938384083

> <r_glide_res:A117_Eint>
21.1110389458204

> <r_glide_res:A113_vdw>
-3.21294101272284

> <r_glide_res:A113_coul>
24.4264363507076

> <r_glide_res:A113_hbond>
0

> <r_glide_res:A113_dist>
2.25243214288704

> <r_glide_res:A113_Eint>
21.2134953379847

> <r_glide_res:A82_vdw>
-0.468685158356142

> <r_glide_res:A82_coul>
-53.3132622411122

> <r_glide_res:A82_hbond>
-0.258828909941766

> <r_glide_res:A82_dist>
1.80255303090813

> <r_glide_res:A82_Eint>
-54.0407763094101

> <r_glide_res:A42_vdw>
1.62575702642689

> <r_glide_res:A42_coul>
-56.9098336036999

> <r_glide_res:A42_hbond>
-0.365886253430473

> <r_glide_res:A42_dist>
1.74789439041481

> <r_glide_res:A42_Eint>
-55.6499628307035

> <r_glide_res:A16_vdw>
-3.36826197478067

> <r_glide_res:A16_coul>
-34.207960543402

> <r_glide_res:A16_hbond>
-0.16

> <r_glide_res:A16_dist>
1.89714730748555

> <r_glide_res:A16_Eint>
-37.7362225181827

> <s_m_source_file>
ligprep_Nicaido_neutral.maegz

> <i_m_source_file_index>
8

> <i_lp_mmshare_version>
58128

> <i_f3d_flags>
0

> <s_lp_Force_Field>
S-OPLS

> <r_lp_Energy>
85.319288

> <b_lp_Chiralities_Consistent>
1

> <s_lp_Variant>
Cefoperazone-1

> <s_epik_input>
W0NIM11bQ0gyXU4xW0NIMl1bQ0gyXU4oQyg9TylDMT1PKUMoPU8pW05IXVtDQEhdKGMyW2NIXVtjSF1jKFtPSF0pW2NIXVtjSF0yKUMoPU8pW05IXVtDQEBIXTNDKD1PKU4oW0NASF0zNClDKEMoPU8pW09IXSk9QyhbQ0gyXVM0KVtDSDJdU2M1bm5ubjVbQ0gzXQ==

> <s_epik_cmdline>
J2VwaWtfcHl0aG9uJywgJy1waHQnLCAnMC4wJywgJy1waCcsICc3LjQnLCAnLW50JywgJy1tYScsICc1MDAnLCAnLWltYWUnLCAnPGluZmlsZS5tYWU+JywgJy1vbWFlJywgJzxvdXRmaWxlLm1hZT4n

> <r_lp_tautomer_probability>
1

> <r_epik_Ionization_Penalty>
  0.0158

> <r_epik_Ionization_Penalty_Charging>
  0.0000

> <r_epik_Ionization_Penalty_Neutral>
  0.0158

> <r_epik_State_Penalty>
  0.0000

> <r_epik_Charging_Adjusted_Penalty>
8.23416745038905e-06

> <i_epik_Tot_Q>
-1

> <i_epik_Tot_abs_Q>
1

> <s_epik_Chemistry_Notes>
This compound contains an acetal/aminal-like group ( X-CH(R)-Y where X, Y are N, S, or O) that may be acid/base labile, releasing an aldehyde.

> <s_m_subgroup_title>
glide-dock_Nicaido_neutral_pv1

> <s_m_subgroupid>
glide-dock_Nicaido_neutral_pv1

> <b_m_subgroup_collapsed>
0

$$$$
Ceftazidime
                    3D
 Schrodinger Suite 2022-2.
 58 61  0  0  1  0            999 V2000
  -34.0182  -23.2077  -27.7396 C   0  0  0  0  0  0
  -32.7664  -23.8295  -27.0655 C   0  0  0  0  0  0
  -33.1636  -24.6264  -25.7986 C   0  0  0  0  0  0
  -32.0653  -24.8020  -28.0505 C   0  0  0  0  0  0
  -31.1690  -25.5494  -27.5975 O   0  5  0  0  0  0
  -32.3694  -24.7496  -29.2636 O   0  0  0  0  0  0
  -31.8161  -22.8080  -26.7134 O   0  0  0  0  0  0
  -32.3923  -21.8563  -25.8407 N   0  0  0  0  0  0
  -31.5821  -21.2669  -25.0437 C   0  0  0  0  0  0
  -30.0660  -21.5067  -24.9401 C   0  0  0  0  0  0
  -29.4072  -20.7450  -24.0512 N   0  0  0  0  0  0
  -27.9883  -20.9019  -23.7209 C   0  0  1  0  0  0
  -27.6518  -20.3223  -22.3342 C   0  0  2  0  0  0
  -27.5288  -21.6896  -21.8569 N   0  0  0  0  0  0
  -27.4016  -22.0532  -20.5048 C   0  0  0  0  0  0
  -26.9919  -23.5495  -20.2656 C   0  0  0  0  0  0
  -27.7824  -24.2625  -19.6131 O   0  5  0  0  0  0
  -25.9401  -23.9495  -20.8131 O   0  0  0  0  0  0
  -27.6057  -21.1638  -19.4961 C   0  0  0  0  0  0
  -27.4407  -21.5016  -18.0154 C   0  0  0  0  0  0
  -26.0151  -21.5073  -17.6156 N   0  3  0  0  0  0
  -25.4375  -22.6722  -17.2283 C   0  0  0  0  0  0
  -24.0914  -22.7058  -16.8103 C   0  0  0  0  0  0
  -23.3435  -21.5126  -16.8020 C   0  0  0  0  0  0
  -23.9617  -20.3166  -17.2136 C   0  0  0  0  0  0
  -25.3127  -20.3456  -17.6146 C   0  0  0  0  0  0
  -28.0572  -19.7211  -19.7330 C   0  0  0  0  0  0
  -28.8763  -19.4593  -21.3195 S   0  0  0  0  0  0
  -27.6342  -22.2807  -23.0965 C   0  0  0  0  0  0
  -27.5479  -23.4350  -23.4597 O   0  0  0  0  0  0
  -29.4760  -22.3495  -25.6135 O   0  0  0  0  0  0
  -32.1460  -20.2174  -24.1516 C   0  0  0  0  0  0
  -32.0873  -20.2905  -22.7757 C   0  0  0  0  0  0
  -32.8311  -18.9105  -22.0135 S   0  0  0  0  0  0
  -33.2574  -18.3131  -23.6066 C   0  0  0  0  0  0
  -33.9687  -17.1416  -23.7775 N   0  0  0  0  0  0
  -32.8406  -19.0893  -24.6061 N   0  0  0  0  0  0
  -34.6858  -23.9811  -28.1220 H   0  0  0  0  0  0
  -34.6037  -22.6064  -27.0438 H   0  0  0  0  0  0
  -33.7422  -22.5666  -28.5769 H   0  0  0  0  0  0
  -33.7547  -25.5065  -26.0547 H   0  0  0  0  0  0
  -32.2841  -24.9664  -25.2516 H   0  0  0  0  0  0
  -33.7625  -24.0276  -25.1122 H   0  0  0  0  0  0
  -29.9206  -20.0681  -23.5003 H   0  0  0  0  0  0
  -27.3096  -20.5474  -24.4975 H   0  0  0  0  0  0
  -26.6885  -19.8084  -22.3088 H   0  0  0  0  0  0
  -27.9502  -20.7688  -17.3932 H   0  0  0  0  0  0
  -27.8896  -22.4647  -17.7715 H   0  0  0  0  0  0
  -26.0660  -23.5500  -17.2446 H   0  0  0  0  0  0
  -23.6453  -23.6337  -16.4891 H   0  0  0  0  0  0
  -22.3126  -21.5105  -16.4778 H   0  0  0  0  0  0
  -23.4144  -19.3842  -17.2078 H   0  0  0  0  0  0
  -25.8442  -19.4586  -17.9188 H   0  0  0  0  0  0
  -28.7686  -19.4180  -18.9678 H   0  0  0  0  0  0
  -27.2022  -19.0503  -19.6635 H   0  0  0  0  0  0
  -31.6412  -21.0546  -22.1534 H   0  0  0  0  0  0
  -33.9448  -16.7352  -24.7000 H   0  0  0  0  0  0
  -33.8813  -16.4649  -23.0296 H   0  0  0  0  0  0
  1  2  1  0  0  0
  1 38  1  0  0  0
  1 39  1  0  0  0
  1 40  1  0  0  0
  2  3  1  0  0  0
  2  4  1  0  0  0
  2  7  1  0  0  0
  3 41  1  0  0  0
  3 42  1  0  0  0
  3 43  1  0  0  0
  4  5  1  0  0  0
  4  6  2  0  0  0
  7  8  1  0  0  0
  8  9  2  3  0  0
  9 10  1  0  0  0
  9 32  1  0  0  0
 10 11  1  0  0  0
 10 31  2  0  0  0
 11 12  1  0  0  0
 11 44  1  0  0  0
 12 29  1  0  0  0
 12 13  1  0  0  0
 12 45  1  0  0  0
 13 28  1  0  0  0
 13 14  1  0  0  0
 13 46  1  0  0  0
 14 15  1  0  0  0
 14 29  1  0  0  0
 15 16  1  0  0  0
 15 19  2  0  0  0
 16 17  1  0  0  0
 16 18  2  0  0  0
 19 20  1  0  0  0
 19 27  1  0  0  0
 20 21  1  0  0  0
 20 47  1  0  0  0
 20 48  1  0  0  0
 21 26  1  0  0  0
 21 22  2  0  0  0
 22 23  1  0  0  0
 22 49  1  0  0  0
 23 24  2  0  0  0
 23 50  1  0  0  0
 24 25  1  0  0  0
 24 51  1  0  0  0
 25 26  2  0  0  0
 25 52  1  0  0  0
 26 53  1  0  0  0
 27 28  1  0  0  0
 27 54  1  0  0  0
 27 55  1  0  0  0
 29 30  2  0  0  0
 32 37  1  0  0  0
 32 33  2  0  0  0
 33 34  1  0  0  0
 33 56  1  0  0  0
 34 35  1  0  0  0
 35 36  1  0  0  0
 35 37  2  0  0  0
 36 57  1  0  0  0
 36 58  1  0  0  0
M  CHG  3   5  -1  17  -1  21   1
M  END
> <s_m_entry_id>
27260

> <s_m_entry_name>
data_maestro.30

> <s_m_Source_Path>
C:\Users\olshana1\Git\GramNeg-Accumulation\Gram Negative Permeation - OmpF

> <s_m_Source_File>
data_maestro.csv

> <i_m_Source_File_Index>
30

> <s_m_job_name>
glide-dock_Nicaido_neutral

> <s_i_glide_gridfile>
3POX-grid

> <i_i_glide_lignum>
39

> <i_i_glide_rotatable_bonds>
10

> <r_i_docking_score>
-6.03924291003273

> <r_i_glide_ligand_efficiency>
-0.163222781352236

> <r_i_glide_ligand_efficiency_sa>
-0.543894518053697

> <r_i_glide_ligand_efficiency_ln>
-1.30977020724479

> <r_i_glide_gscore>
-6.03924291003273

> <r_i_glide_lipo>
0

> <r_i_glide_hbond>
-0.913287292595902

> <r_i_glide_metal>
0

> <r_i_glide_rewards>
-0.0795556302353189

> <r_i_glide_evdw>
-31.7913722991943

> <r_i_glide_ecoul>
-22.0437602996826

> <r_i_glide_erotb>
0.556495996469625

> <r_i_glide_esite>
-0.706763323759026

> <r_i_glide_emodel>
-94.0684026137158

> <r_i_glide_energy>
-53.835132598877

> <r_i_glide_einternal>
5.89011478424072

> <i_i_glide_confnum>
223

> <i_i_glide_posenum>
80

> <r_i_glide_eff_state_penalty>
0

> <r_glide_res:A132_vdw>
1.73403249356806

> <r_glide_res:A132_coul>
-50.6026065129637

> <r_glide_res:A132_hbond>
-0.4

> <r_glide_res:A132_dist>
1.74507268163984

> <r_glide_res:A132_Eint>
-49.2685740193957

> <r_glide_res:A117_vdw>
-2.60755799154353

> <r_glide_res:A117_coul>
12.6005333463369

> <r_glide_res:A117_hbond>
0

> <r_glide_res:A117_dist>
3.12237320718271

> <r_glide_res:A117_Eint>
9.99297535479334

> <r_glide_res:A113_vdw>
-4.0290350204427

> <r_glide_res:A113_coul>
10.523095636549

> <r_glide_res:A113_hbond>
0

> <r_glide_res:A113_dist>
2.19000000497577

> <r_glide_res:A113_Eint>
6.49406061610629

> <r_glide_res:A82_vdw>
-1.03225676164055

> <r_glide_res:A82_coul>
-52.9547285137284

> <r_glide_res:A82_hbond>
-0.139044112441412

> <r_glide_res:A82_dist>
1.87038873441271

> <r_glide_res:A82_Eint>
-54.1260293878103

> <r_glide_res:A42_vdw>
-0.796248458270723

> <r_glide_res:A42_coul>
-62.9563712612094

> <r_glide_res:A42_hbond>
-0.312327654486035

> <r_glide_res:A42_dist>
1.73790627675664

> <r_glide_res:A42_Eint>
-64.0649473739662

> <r_glide_res:A16_vdw>
-2.87616018769147

> <r_glide_res:A16_coul>
-49.7240623869804

> <r_glide_res:A16_hbond>
0

> <r_glide_res:A16_dist>
2.46972972351103

> <r_glide_res:A16_Eint>
-52.6002225746719

> <s_m_source_file>
ligprep_Nicaido_neutral.maegz

> <i_m_source_file_index>
30

> <i_lp_mmshare_version>
58128

> <i_f3d_flags>
0

> <s_lp_Force_Field>
S-OPLS

> <r_lp_Energy>
82.572273

> <b_lp_Chiralities_Consistent>
1

> <s_lp_Variant>
Ceftazidime-2

> <s_epik_input>
W09IXUMoPU8pQyhbQ0gzXSkoW0NIM10pTy9OPUMoYzFbY0hdc2MobjEpW05IMl0pL0MoPU8pW05IXVtDQEBIXTJDKD1PKU4oW0NAQEhdMjMpQyhDKD1PKVtPSF0pPUMoW0NIMl1TMylbQ0gyXVtuK100W2NIXVtjSF1bY0hdW2NIXVtjSF00

> <s_epik_cmdline>
J2VwaWtfcHl0aG9uJywgJy1waHQnLCAnMC4wJywgJy1waCcsICc3LjQnLCAnLW50JywgJy1tYScsICc1MDAnLCAnLWltYWUnLCAnPGluZmlsZS5tYWU+JywgJy1vbWFlJywgJzxvdXRmaWxlLm1hZT4n

> <r_lp_tautomer_probability>
1

> <r_epik_Ionization_Penalty>
  0.0005

> <r_epik_Ionization_Penalty_Charging>
  0.0001

> <r_epik_Ionization_Penalty_Neutral>
  0.0005

> <r_epik_State_Penalty>
  0.0000

> <r_epik_Charging_Adjusted_Penalty>
5.84857251211915e-05

> <i_epik_Tot_Q>
-1

> <i_epik_Tot_abs_Q>
3

> <s_epik_Chemistry_Notes>
This compound has an imine and may undergo hydrolysis. This compound contains an acetal/aminal-like group ( X-CH(R)-Y where X, Y are N, S, or O) that may be acid/base labile, releasing an aldehyde.

> <s_m_subgroup_title>
glide-dock_Nicaido_neutral_pv1

> <s_m_subgroupid>
glide-dock_Nicaido_neutral_pv1

> <b_m_subgroup_collapsed>
0

$$$$
Imipenem
                    3D
 Schrodinger Suite 2022-2.
 37 38  0  0  1  0            999 V2000
  -22.0547  -20.7008  -26.0728 C   0  0  0  0  0  0
  -23.0926  -19.9799  -25.1984 C   0  0  2  0  0  0
  -23.6097  -20.8214  -24.0187 C   0  0  1  0  0  0
  -24.8764  -20.3946  -23.2521 C   0  0  2  0  0  0
  -25.1447  -20.6161  -21.7580 C   0  0  0  0  0  0
  -26.3683  -21.5003  -21.7900 C   0  0  0  0  0  0
  -27.4227  -21.6930  -20.3791 S   0  0  0  0  0  0
  -27.5454  -20.0128  -19.6973 C   0  0  0  0  0  0
  -28.1141  -19.0180  -20.7233 C   0  0  0  0  0  0
  -29.5691  -19.1496  -20.8134 N   0  3  0  0  0  0
  -30.3933  -18.4987  -21.6475 C   0  0  0  0  0  0
  -29.9689  -17.7047  -22.6388 N   0  0  0  0  0  0
  -26.5353  -22.0356  -23.0036 C   0  0  0  0  0  0
  -25.5509  -21.5411  -23.8504 N   0  0  0  0  0  0
  -24.4110  -22.0895  -24.4134 C   0  0  0  0  0  0
  -24.1675  -23.1959  -24.8494 O   0  0  0  0  0  0
  -27.6605  -22.9717  -23.5389 C   0  0  0  0  0  0
  -28.0483  -22.7496  -24.7114 O   0  5  0  0  0  0
  -27.9689  -23.9495  -22.8134 O   0  0  0  0  0  0
  -24.1552  -19.5496  -26.0234 O   0  0  0  0  0  0
  -21.2037  -21.0329  -25.4780 H   0  0  0  0  0  0
  -21.6737  -20.0375  -26.8503 H   0  0  0  0  0  0
  -22.4783  -21.5744  -26.5693 H   0  0  0  0  0  0
  -22.6255  -19.0757  -24.8051 H   0  0  0  0  0  0
  -22.8095  -21.0464  -23.3133 H   0  0  0  0  0  0
  -25.3238  -19.4746  -23.6350 H   0  0  0  0  0  0
  -24.3255  -21.1414  -21.2663 H   0  0  0  0  0  0
  -25.3087  -19.6715  -21.2425 H   0  0  0  0  0  0
  -28.1845  -20.0496  -18.8134 H   0  0  0  0  0  0
  -26.5677  -19.6851  -19.3452 H   0  0  0  0  0  0
  -27.8846  -17.9995  -20.4124 H   0  0  0  0  0  0
  -27.6669  -19.1497  -21.7078 H   0  0  0  0  0  0
  -31.4606  -18.5964  -21.4829 H   0  0  0  0  0  0
  -28.9719  -17.5495  -22.7658 H   0  0  0  0  0  0
  -30.6296  -17.0809  -23.0877 H   0  0  0  0  0  0
  -24.3689  -18.6415  -25.7951 H   0  0  0  0  0  0
  -30.0196  -19.5496  -19.9684 H   0  0  0  0  0  0
  1  2  1  0  0  0
  1 21  1  0  0  0
  1 22  1  0  0  0
  1 23  1  0  0  0
  2  3  1  0  0  0
  2 20  1  0  0  0
  2 24  1  0  0  0
  3 15  1  0  0  0
  3  4  1  0  0  0
  3 25  1  0  0  0
  4 14  1  0  0  0
  4  5  1  0  0  0
  4 26  1  0  0  0
  5  6  1  0  0  0
  5 27  1  0  0  0
  5 28  1  0  0  0
  6  7  1  0  0  0
  6 13  2  0  0  0
  7  8  1  0  0  0
  8  9  1  0  0  0
  8 29  1  0  0  0
  8 30  1  0  0  0
  9 10  1  0  0  0
  9 31  1  0  0  0
  9 32  1  0  0  0
 10 11  2  3  0  0
 10 37  1  0  0  0
 11 12  1  0  0  0
 11 33  1  0  0  0
 12 34  1  0  0  0
 12 35  1  0  0  0
 13 14  1  0  0  0
 13 17  1  0  0  0
 14 15  1  0  0  0
 15 16  2  0  0  0
 17 18  1  0  0  0
 17 19  2  0  0  0
 20 36  1  0  0  0
M  CHG  2  10   1  18  -1
M  END
> <s_m_entry_id>
27261

> <s_m_entry_name>
data_maestro.12

> <s_m_Source_Path>
C:\Users\olshana1\Git\GramNeg-Accumulation\Gram Negative Permeation - OmpF

> <s_m_Source_File>
data_maestro.csv

> <i_m_Source_File_Index>
12

> <s_m_job_name>
glide-dock_Nicaido_neutral

> <s_i_glide_gridfile>
3POX-grid

> <i_i_glide_lignum>
17

> <i_i_glide_rotatable_bonds>
7

> <r_i_docking_score>
-6.03028628458402

> <r_i_glide_ligand_efficiency>
-0.301514314229201

> <r_i_glide_ligand_efficiency_sa>
-0.818435765382005

> <r_i_glide_ligand_efficiency_ln>
-1.50918176487846

> <r_i_glide_gscore>
-6.03028628458402

> <r_i_glide_lipo>
-0.0518055350501008

> <r_i_glide_hbond>
-0.840593742829693

> <r_i_glide_metal>
0

> <r_i_glide_rewards>
-1.36808809090909

> <r_i_glide_evdw>
-13.9128932952881

> <r_i_glide_ecoul>
-24.3949966430664

> <r_i_glide_erotb>
1.02473259195513

> <r_i_glide_esite>
-0.439637346525902

> <r_i_glide_emodel>
-69.2294619003382

> <r_i_glide_energy>
-38.3078899383545

> <r_i_glide_einternal>
7.98191785812378

> <i_i_glide_confnum>
192

> <i_i_glide_posenum>
117

> <r_i_glide_eff_state_penalty>
0

> <r_glide_res:A132_vdw>
-1.26037196887343

> <r_glide_res:A132_coul>
-18.1332145505046

> <r_glide_res:A132_hbond>
0

> <r_glide_res:A132_dist>
2.91323451447126

> <r_glide_res:A132_Eint>
-19.393586519378

> <r_glide_res:A117_vdw>
-1.42187726678063

> <r_glide_res:A117_coul>
-16.4065951993604

> <r_glide_res:A117_hbond>
-0.16

> <r_glide_res:A117_dist>
1.89171990265118

> <r_glide_res:A117_Eint>
-17.9884724661411

> <r_glide_res:A113_vdw>
1.24325458362082

> <r_glide_res:A113_coul>
-23.5392068800148

> <r_glide_res:A113_hbond>
-0.2

> <r_glide_res:A113_dist>
1.60631777566569

> <r_glide_res:A113_Eint>
-22.495952296394

> <r_glide_res:A82_vdw>
1.20666479797342

> <r_glide_res:A82_coul>
-34.0991273171936

> <r_glide_res:A82_hbond>
-0.22921796361209

> <r_glide_res:A82_dist>
1.73779561771277

> <r_glide_res:A82_Eint>
-33.1216804828323

> <r_glide_res:A42_vdw>
-0.413670126013383

> <r_glide_res:A42_coul>
-33.8198501358538

> <r_glide_res:A42_hbond>
-0.251375779217603

> <r_glide_res:A42_dist>
1.89376916829449

> <r_glide_res:A42_Eint>
-34.4848960410848

> <r_glide_res:A16_vdw>
-0.215594906191286

> <r_glide_res:A16_coul>
-8.59622713039496

> <r_glide_res:A16_hbond>
0

> <r_glide_res:A16_dist>
4.37910861863256

> <r_glide_res:A16_Eint>
-8.81182203658625

> <s_m_source_file>
ligprep_Nicaido_neutral.maegz

> <i_m_source_file_index>
12

> <i_lp_mmshare_version>
58128

> <i_f3d_flags>
0

> <s_lp_Force_Field>
S-OPLS

> <r_lp_Energy>
22.988374

> <b_lp_Chiralities_Consistent>
1

> <s_lp_Variant>
Imipenem-2

> <s_epik_input>
W0NIM11bQ0BASF0oW09IXSlbQ0BASF0xQyg9TylOKFtDQEhdMTIpQyhDKD1PKVtPSF0pPUMoW0NIMl0yKVNbQ0gyXVtDSDJdL049W0NIXS9bTkgyXQ==

> <s_epik_cmdline>
J2VwaWtfcHl0aG9uJywgJy1waHQnLCAnMC4wJywgJy1waCcsICc3LjQnLCAnLW50JywgJy1tYScsICc1MDAnLCAnLWltYWUnLCAnPGluZmlsZS5tYWU+JywgJy1vbWFlJywgJzxvdXRmaWxlLm1hZT4n

> <r_lp_tautomer_probability>
1

> <r_epik_Ionization_Penalty>
  0.0001

> <r_epik_Ionization_Penalty_Charging>
  0.0001

> <r_epik_Ionization_Penalty_Neutral>
  0.0000

> <r_epik_State_Penalty>
  0.0000

> <r_epik_Charging_Adjusted_Penalty>
9.5675940864495e-05

> <i_epik_Tot_Q>
0

> <i_epik_Tot_abs_Q>
2

> <s_epik_Chemistry_Notes>
This compound has an imine and may undergo hydrolysis.

> <s_m_subgroup_title>
glide-dock_Nicaido_neutral_pv1

> <s_m_subgroupid>
glide-dock_Nicaido_neutral_pv1

> <b_m_subgroup_collapsed>
0

$$$$
Cefoperazone
                    3D
 Schrodinger Suite 2022-2.
 70 74  0  0  1  0            999 V2000
  -34.9748  -24.2886  -32.4276 C   0  0  0  0  0  0
  -34.9225  -25.6509  -31.7437 C   0  0  0  0  0  0
  -34.2689  -25.5497  -30.4304 N   0  0  0  0  0  0
  -35.1650  -25.3353  -29.2974 C   0  0  0  0  0  0
  -34.5437  -24.3394  -28.3111 C   0  0  0  0  0  0
  -33.1624  -24.7211  -27.9315 N   0  0  0  0  0  0
  -32.3554  -25.3665  -28.8279 C   0  0  0  0  0  0
  -32.9304  -25.6571  -30.2573 C   0  0  0  0  0  0
  -32.1509  -25.9495  -31.1651 O   0  0  0  0  0  0
  -31.1695  -25.6604  -28.6238 O   0  0  0  0  0  0
  -32.7681  -24.4884  -26.6506 C   0  0  0  0  0  0
  -33.1585  -23.2862  -26.1879 N   0  0  0  0  0  0
  -32.8302  -22.7586  -24.8651 C   0  0  2  0  0  0
  -33.9277  -21.8690  -24.3726 C   0  0  0  0  0  0
  -34.5955  -20.9356  -25.2064 C   0  0  0  0  0  0
  -35.5812  -20.0689  -24.6982 C   0  0  0  0  0  0
  -35.9269  -20.1156  -23.3351 C   0  0  0  0  0  0
  -35.2923  -21.0437  -22.4911 C   0  0  0  0  0  0
  -34.3087  -21.9082  -23.0093 C   0  0  0  0  0  0
  -36.8665  -19.2658  -22.8286 O   0  0  0  0  0  0
  -31.5880  -21.8488  -24.9280 C   0  0  0  0  0  0
  -31.0722  -21.4845  -23.7437 N   0  0  0  0  0  0
  -29.7539  -20.8961  -23.5596 C   0  0  1  0  0  0
  -29.3112  -20.9270  -22.0841 C   0  0  1  0  0  0
  -28.1403  -21.6623  -22.5219 N   0  0  0  0  0  0
  -28.6239  -21.9248  -23.7946 C   0  0  0  0  0  0
  -28.2966  -22.6923  -24.6776 O   0  0  0  0  0  0
  -27.1341  -22.0779  -21.6273 C   0  0  0  0  0  0
  -26.4177  -23.4182  -22.0365 C   0  0  0  0  0  0
  -25.1726  -23.4870  -21.9427 O   0  5  0  0  0  0
  -27.1693  -24.3495  -22.4119 O   0  0  0  0  0  0
  -26.9081  -21.4227  -20.4501 C   0  0  0  0  0  0
  -27.7240  -20.2147  -19.9765 C   0  0  0  0  0  0
  -28.7505  -19.4297  -21.2440 S   0  0  0  0  0  0
  -25.8459  -21.8309  -19.4338 C   0  0  0  0  0  0
  -26.4360  -23.0360  -18.2088 S   0  0  0  0  0  0
  -24.8557  -23.6711  -17.7560 C   0  0  0  0  0  0
  -24.2799  -24.7315  -18.3148 N   0  0  0  0  0  0
  -23.0454  -24.8031  -17.6962 N   0  0  0  0  0  0
  -22.9036  -23.8595  -16.8133 N   0  0  0  0  0  0
  -24.0540  -23.1410  -16.8199 N   0  0  0  0  0  0
  -24.2162  -22.0148  -15.9227 C   0  0  0  0  0  0
  -31.0712  -21.5518  -26.0113 O   0  0  0  0  0  0
  -32.0083  -25.2143  -26.0032 O   0  0  0  0  0  0
  -35.5168  -24.3500  -33.3727 H   0  0  0  0  0  0
  -33.9688  -23.9341  -32.6470 H   0  0  0  0  0  0
  -35.4739  -23.5487  -31.8026 H   0  0  0  0  0  0
  -35.9310  -26.0500  -31.6324 H   0  0  0  0  0  0
  -34.4087  -26.3469  -32.4082 H   0  0  0  0  0  0
  -36.1366  -24.9613  -29.6258 H   0  0  0  0  0  0
  -35.3467  -26.2920  -28.8046 H   0  0  0  0  0  0
  -34.5226  -23.3441  -28.7587 H   0  0  0  0  0  0
  -35.2041  -24.2793  -27.4430 H   0  0  0  0  0  0
  -33.7439  -22.7106  -26.7723 H   0  0  0  0  0  0
  -32.6489  -23.5739  -24.1604 H   0  0  0  0  0  0
  -34.3335  -20.8579  -26.2517 H   0  0  0  0  0  0
  -36.0576  -19.3598  -25.3587 H   0  0  0  0  0  0
  -35.5476  -21.0825  -21.4414 H   0  0  0  0  0  0
  -33.8270  -22.6025  -22.3349 H   0  0  0  0  0  0
  -37.1823  -18.6357  -23.4555 H   0  0  0  0  0  0
  -31.5807  -21.7310  -22.9063 H   0  0  0  0  0  0
  -29.6185  -19.9232  -24.0365 H   0  0  0  0  0  0
  -29.9418  -21.5382  -21.4319 H   0  0  0  0  0  0
  -28.3684  -20.5333  -19.1561 H   0  0  0  0  0  0
  -27.0642  -19.4441  -19.5769 H   0  0  0  0  0  0
  -24.9583  -22.2234  -19.9225 H   0  0  0  0  0  0
  -25.4879  -20.9467  -18.9030 H   0  0  0  0  0  0
  -25.1701  -21.5183  -16.0957 H   0  0  0  0  0  0
  -24.1838  -22.3656  -14.8904 H   0  0  0  0  0  0
  -23.4111  -21.2951  -16.0833 H   0  0  0  0  0  0
  1  2  1  0  0  0
  1 45  1  0  0  0
  1 46  1  0  0  0
  1 47  1  0  0  0
  2  3  1  0  0  0
  2 48  1  0  0  0
  2 49  1  0  0  0
  3  8  1  0  0  0
  3  4  1  0  0  0
  4  5  1  0  0  0
  4 50  1  0  0  0
  4 51  1  0  0  0
  5  6  1  0  0  0
  5 52  1  0  0  0
  5 53  1  0  0  0
  6  7  1  0  0  0
  6 11  1  0  0  0
  7  8  1  0  0  0
  7 10  2  0  0  0
  8  9  2  0  0  0
 11 12  1  0  0  0
 11 44  2  0  0  0
 12 13  1  0  0  0
 12 54  1  0  0  0
 13 14  1  0  0  0
 13 21  1  0  0  0
 13 55  1  0  0  0
 14 19  1  0  0  0
 14 15  2  0  0  0
 15 16  1  0  0  0
 15 56  1  0  0  0
 16 17  2  0  0  0
 16 57  1  0  0  0
 17 18  1  0  0  0
 17 20  1  0  0  0
 18 19  2  0  0  0
 18 58  1  0  0  0
 19 59  1  0  0  0
 20 60  1  0  0  0
 21 22  1  0  0  0
 21 43  2  0  0  0
 22 23  1  0  0  0
 22 61  1  0  0  0
 23 26  1  0  0  0
 23 24  1  0  0  0
 23 62  1  0  0  0
 24 34  1  0  0  0
 24 25  1  0  0  0
 24 63  1  0  0  0
 25 26  1  0  0  0
 25 28  1  0  0  0
 26 27  2  0  0  0
 28 29  1  0  0  0
 28 32  2  0  0  0
 29 30  1  0  0  0
 29 31  2  0  0  0
 32 33  1  0  0  0
 32 35  1  0  0  0
 33 34  1  0  0  0
 33 64  1  0  0  0
 33 65  1  0  0  0
 35 36  1  0  0  0
 35 66  1  0  0  0
 35 67  1  0  0  0
 36 37  1  0  0  0
 37 41  1  0  0  0
 37 38  2  0  0  0
 38 39  1  0  0  0
 39 40  2  0  0  0
 40 41  1  0  0  0
 41 42  1  0  0  0
 42 68  1  0  0  0
 42 69  1  0  0  0
 42 70  1  0  0  0
M  CHG  1  30  -1
M  END
> <s_m_entry_id>
27262

> <s_m_entry_name>
data_maestro.8

> <s_m_Source_Path>
C:\Users\olshana1\Git\GramNeg-Accumulation\Gram Negative Permeation - OmpF

> <s_m_Source_File>
data_maestro.csv

> <i_m_Source_File_Index>
8

> <s_m_job_name>
glide-dock_Nicaido_neutral

> <s_i_glide_gridfile>
3POX-grid

> <i_i_glide_lignum>
11

> <i_i_glide_rotatable_bonds>
13

> <r_i_docking_score>
-5.99707496773205

> <r_i_glide_ligand_efficiency>
-0.136297158357547

> <r_i_glide_ligand_efficiency_sa>
-0.481176445510283

> <r_i_glide_ligand_efficiency_ln>
-1.25351949371213

> <r_i_glide_gscore>
-5.99707496773205

> <r_i_glide_lipo>
-0.294325255144304

> <r_i_glide_hbond>
-0.596686822379056

> <r_i_glide_metal>
0

> <r_i_glide_rewards>
-0.400757377340986

> <r_i_glide_evdw>
-46.5079536437988

> <r_i_glide_ecoul>
-13.3015079498291

> <r_i_glide_erotb>
0.362700252817045

> <r_i_glide_esite>
-0.747381891020446

> <r_i_glide_emodel>
-91.8718832062418

> <r_i_glide_energy>
-59.8094615936279

> <r_i_glide_einternal>
9.89955902099609

> <i_i_glide_confnum>
790

> <i_i_glide_posenum>
342

> <r_i_glide_eff_state_penalty>
0

> <r_glide_res:A132_vdw>
-1.90252153587094

> <r_glide_res:A132_coul>
-44.8669804139015

> <r_glide_res:A132_hbond>
-0.0191551390741669

> <r_glide_res:A132_dist>
2.37080222421534

> <r_glide_res:A132_Eint>
-46.7886570888466

> <r_glide_res:A117_vdw>
-1.60612254021268

> <r_glide_res:A117_coul>
23.1295130453035

> <r_glide_res:A117_hbond>
0

> <r_glide_res:A117_dist>
3.33527288402543

> <r_glide_res:A117_Eint>
21.5233905050908

> <r_glide_res:A113_vdw>
-3.3030620162512

> <r_glide_res:A113_coul>
18.6345082985124

> <r_glide_res:A113_hbond>
0

> <r_glide_res:A113_dist>
2.64976427756185

> <r_glide_res:A113_Eint>
15.3314462822612

> <r_glide_res:A82_vdw>
2.95611673272689

> <r_glide_res:A82_coul>
-56.2639801451493

> <r_glide_res:A82_hbond>
-0.16721115820004

> <r_glide_res:A82_dist>
1.53442231640008

> <r_glide_res:A82_Eint>
-53.4750745706224

> <r_glide_res:A42_vdw>
-4.75399423392107

> <r_glide_res:A42_coul>
-48.1325609796037

> <r_glide_res:A42_hbond>
-0.355924348684183

> <r_glide_res:A42_dist>
2.09191285591923

> <r_glide_res:A42_Eint>
-53.242479562209

> <r_glide_res:A16_vdw>
-5.12829578003314

> <r_glide_res:A16_coul>
-26.0131655399892

> <r_glide_res:A16_hbond>
-0.0543961764206657

> <r_glide_res:A16_dist>
2.23603796766928

> <r_glide_res:A16_Eint>
-31.195857496443

> <s_m_source_file>
ligprep_Nicaido_neutral.maegz

> <i_m_source_file_index>
8

> <i_lp_mmshare_version>
58128

> <i_f3d_flags>
0

> <s_lp_Force_Field>
S-OPLS

> <r_lp_Energy>
85.319288

> <b_lp_Chiralities_Consistent>
1

> <s_lp_Variant>
Cefoperazone-1

> <s_epik_input>
W0NIM11bQ0gyXU4xW0NIMl1bQ0gyXU4oQyg9TylDMT1PKUMoPU8pW05IXVtDQEhdKGMyW2NIXVtjSF1jKFtPSF0pW2NIXVtjSF0yKUMoPU8pW05IXVtDQEBIXTNDKD1PKU4oW0NASF0zNClDKEMoPU8pW09IXSk9QyhbQ0gyXVM0KVtDSDJdU2M1bm5ubjVbQ0gzXQ==

> <s_epik_cmdline>
J2VwaWtfcHl0aG9uJywgJy1waHQnLCAnMC4wJywgJy1waCcsICc3LjQnLCAnLW50JywgJy1tYScsICc1MDAnLCAnLWltYWUnLCAnPGluZmlsZS5tYWU+JywgJy1vbWFlJywgJzxvdXRmaWxlLm1hZT4n

> <r_lp_tautomer_probability>
1

> <r_epik_Ionization_Penalty>
  0.0158

> <r_epik_Ionization_Penalty_Charging>
  0.0000

> <r_epik_Ionization_Penalty_Neutral>
  0.0158

> <r_epik_State_Penalty>
  0.0000

> <r_epik_Charging_Adjusted_Penalty>
8.23416745038905e-06

> <i_epik_Tot_Q>
-1

> <i_epik_Tot_abs_Q>
1

> <s_epik_Chemistry_Notes>
This compound contains an acetal/aminal-like group ( X-CH(R)-Y where X, Y are N, S, or O) that may be acid/base labile, releasing an aldehyde.

> <s_m_subgroup_title>
glide-dock_Nicaido_neutral_pv1

> <s_m_subgroupid>
glide-dock_Nicaido_neutral_pv1

> <b_m_subgroup_collapsed>
0

$$$$
Ceftazidime
                    3D
 Schrodinger Suite 2022-2.
 58 61  0  0  1  0            999 V2000
  -33.9887  -23.1788  -27.7767 C   0  0  0  0  0  0
  -32.7260  -23.7883  -27.1079 C   0  0  0  0  0  0
  -33.1026  -24.5383  -25.8069 C   0  0  0  0  0  0
  -32.0549  -24.7949  -28.0769 C   0  0  0  0  0  0
  -31.1689  -25.5496  -27.6152 O   0  5  0  0  0  0
  -32.3688  -24.7552  -29.2881 O   0  0  0  0  0  0
  -31.7567  -22.7692  -26.8065 O   0  0  0  0  0  0
  -32.3204  -21.7677  -25.9883 N   0  0  0  0  0  0
  -31.5016  -21.1412  -25.2314 C   0  0  0  0  0  0
  -29.9760  -21.3426  -25.1720 C   0  0  0  0  0  0
  -29.3670  -20.8118  -24.1022 N   0  0  0  0  0  0
  -27.9608  -20.9994  -23.7550 C   0  0  1  0  0  0
  -27.6214  -20.4003  -22.3765 C   0  0  2  0  0  0
  -27.5119  -21.7592  -21.8773 N   0  0  0  0  0  0
  -27.3747  -22.0977  -20.5199 C   0  0  0  0  0  0
  -26.9259  -23.5744  -20.2647 C   0  0  0  0  0  0
  -27.6944  -24.3151  -19.6132 O   0  5  0  0  0  0
  -25.8658  -23.9494  -20.8134 O   0  0  0  0  0  0
  -27.5914  -21.2014  -19.5203 C   0  0  0  0  0  0
  -27.4350  -21.5294  -18.0355 C   0  0  0  0  0  0
  -26.0143  -21.5015  -17.6244 N   0  3  0  0  0  0
  -25.4041  -22.6518  -17.2395 C   0  0  0  0  0  0
  -24.0590  -22.6451  -16.8162 C   0  0  0  0  0  0
  -23.3468  -21.4297  -16.8047 C   0  0  0  0  0  0
  -23.9997  -20.2508  -17.2136 C   0  0  0  0  0  0
  -25.3496  -20.3190  -17.6137 C   0  0  0  0  0  0
  -28.0454  -19.7627  -19.7730 C   0  0  0  0  0  0
  -28.8365  -19.5108  -21.3734 S   0  0  0  0  0  0
  -27.6850  -22.3758  -23.0993 C   0  0  0  0  0  0
  -27.6910  -23.5440  -23.4287 O   0  0  0  0  0  0
  -29.3446  -21.9495  -26.0370 O   0  0  0  0  0  0
  -32.0568  -20.0682  -24.3592 C   0  0  0  0  0  0
  -32.9176  -19.1225  -24.8707 C   0  0  0  0  0  0
  -33.3948  -17.9494  -23.6731 S   0  0  0  0  0  0
  -32.3988  -18.7997  -22.5059 C   0  0  0  0  0  0
  -32.2416  -18.3495  -21.2132 N   0  0  0  0  0  0
  -31.8279  -19.8998  -22.9878 N   0  0  0  0  0  0
  -34.6652  -23.9587  -28.1299 H   0  0  0  0  0  0
  -34.5625  -22.5611  -27.0860 H   0  0  0  0  0  0
  -33.7265  -22.5581  -28.6340 H   0  0  0  0  0  0
  -33.7117  -25.4179  -26.0192 H   0  0  0  0  0  0
  -32.2141  -24.8734  -25.2708 H   0  0  0  0  0  0
  -33.6759  -23.9090  -25.1261 H   0  0  0  0  0  0
  -29.9379  -20.3296  -23.4137 H   0  0  0  0  0  0
  -27.2589  -20.6922  -24.5315 H   0  0  0  0  0  0
  -26.6528  -19.8962  -22.3580 H   0  0  0  0  0  0
  -27.9683  -20.8048  -17.4225 H   0  0  0  0  0  0
  -27.8620  -22.5016  -17.7901 H   0  0  0  0  0  0
  -26.0038  -23.5508  -17.2638 H   0  0  0  0  0  0
  -23.5845  -23.5592  -16.4956 H   0  0  0  0  0  0
  -22.3173  -21.3987  -16.4785 H   0  0  0  0  0  0
  -23.4831  -19.3009  -17.2002 H   0  0  0  0  0  0
  -25.9154  -19.4502  -17.9107 H   0  0  0  0  0  0
  -28.7689  -19.4552  -19.0208 H   0  0  0  0  0  0
  -27.1939  -19.0878  -19.7001 H   0  0  0  0  0  0
  -33.2873  -19.0321  -25.8813 H   0  0  0  0  0  0
  -31.5770  -18.8311  -20.6129 H   0  0  0  0  0  0
  -32.2892  -17.3504  -21.0720 H   0  0  0  0  0  0
  1  2  1  0  0  0
  1 38  1  0  0  0
  1 39  1  0  0  0
  1 40  1  0  0  0
  2  3  1  0  0  0
  2  4  1  0  0  0
  2  7  1  0  0  0
  3 41  1  0  0  0
  3 42  1  0  0  0
  3 43  1  0  0  0
  4  5  1  0  0  0
  4  6  2  0  0  0
  7  8  1  0  0  0
  8  9  2  3  0  0
  9 10  1  0  0  0
  9 32  1  0  0  0
 10 11  1  0  0  0
 10 31  2  0  0  0
 11 12  1  0  0  0
 11 44  1  0  0  0
 12 29  1  0  0  0
 12 13  1  0  0  0
 12 45  1  0  0  0
 13 28  1  0  0  0
 13 14  1  0  0  0
 13 46  1  0  0  0
 14 15  1  0  0  0
 14 29  1  0  0  0
 15 16  1  0  0  0
 15 19  2  0  0  0
 16 17  1  0  0  0
 16 18  2  0  0  0
 19 20  1  0  0  0
 19 27  1  0  0  0
 20 21  1  0  0  0
 20 47  1  0  0  0
 20 48  1  0  0  0
 21 26  1  0  0  0
 21 22  2  0  0  0
 22 23  1  0  0  0
 22 49  1  0  0  0
 23 24  2  0  0  0
 23 50  1  0  0  0
 24 25  1  0  0  0
 24 51  1  0  0  0
 25 26  2  0  0  0
 25 52  1  0  0  0
 26 53  1  0  0  0
 27 28  1  0  0  0
 27 54  1  0  0  0
 27 55  1  0  0  0
 29 30  2  0  0  0
 32 37  1  0  0  0
 32 33  2  0  0  0
 33 34  1  0  0  0
 33 56  1  0  0  0
 34 35  1  0  0  0
 35 36  1  0  0  0
 35 37  2  0  0  0
 36 57  1  0  0  0
 36 58  1  0  0  0
M  CHG  3   5  -1  17  -1  21   1
M  END
> <s_m_entry_id>
27263

> <s_m_entry_name>
data_maestro.30

> <s_m_Source_Path>
C:\Users\olshana1\Git\GramNeg-Accumulation\Gram Negative Permeation - OmpF

> <s_m_Source_File>
data_maestro.csv

> <i_m_Source_File_Index>
30

> <s_m_job_name>
glide-dock_Nicaido_neutral

> <s_i_glide_gridfile>
3POX-grid

> <i_i_glide_lignum>
39

> <i_i_glide_rotatable_bonds>
10

> <r_i_docking_score>
-5.99103504072901

> <r_i_glide_ligand_efficiency>
-0.161919865965649

> <r_i_glide_ligand_efficiency_sa>
-0.539552914936892

> <r_i_glide_ligand_efficiency_ln>
-1.29931505054562

> <r_i_glide_gscore>
-5.99103504072901

> <r_i_glide_lipo>
0

> <r_i_glide_hbond>
-1.03007489861662

> <r_i_glide_metal>
0

> <r_i_glide_rewards>
-0.09483092871168

> <r_i_glide_evdw>
-32.3786506652832

> <r_i_glide_ecoul>
-20.658296585083

> <r_i_glide_erotb>
0.556495996469625

> <r_i_glide_esite>
-0.704948188843725

> <r_i_glide_emodel>
-92.6257400269146

> <r_i_glide_energy>
-53.0369472503662

> <r_i_glide_einternal>
6.57038593292236

> <i_i_glide_confnum>
168

> <i_i_glide_posenum>
283

> <r_i_glide_eff_state_penalty>
0

> <r_glide_res:A132_vdw>
2.17397552937296

> <r_glide_res:A132_coul>
-51.6778852347773

> <r_glide_res:A132_hbond>
-0.4

> <r_glide_res:A132_dist>
1.72730617292927

> <r_glide_res:A132_Eint>
-49.9039097054043

> <r_glide_res:A117_vdw>
-2.70321754340798

> <r_glide_res:A117_coul>
13.3332614750314

> <r_glide_res:A117_hbond>
0

> <r_glide_res:A117_dist>
3.21154807780908

> <r_glide_res:A117_Eint>
10.6300439316234

> <r_glide_res:A113_vdw>
-3.76911604176522

> <r_glide_res:A113_coul>
11.8643980803388

> <r_glide_res:A113_hbond>
-0.0705652747240921

> <r_glide_res:A113_dist>
2.19040223624137

> <r_glide_res:A113_Eint>
8.02471676384953

> <r_glide_res:A82_vdw>
-0.165944924416372

> <r_glide_res:A82_coul>
-53.5293214503684

> <r_glide_res:A82_hbond>
-0.140584744845085

> <r_glide_res:A82_dist>
1.80202761866613

> <r_glide_res:A82_Eint>
-53.8358511196298

> <r_glide_res:A42_vdw>
-1.55893254380469

> <r_glide_res:A42_coul>
-61.5017487707899

> <r_glide_res:A42_hbond>
-0.300581580682018

> <r_glide_res:A42_dist>
1.89187924508563

> <r_glide_res:A42_Eint>
-63.3612628952766

> <r_glide_res:A16_vdw>
-2.87109991866384

> <r_glide_res:A16_coul>
-49.133703981658

> <r_glide_res:A16_hbond>
-0.0318985121765884

> <r_glide_res:A16_dist>
2.42025371955853

> <r_glide_res:A16_Eint>
-52.0367024124984

> <s_m_source_file>
ligprep_Nicaido_neutral.maegz

> <i_m_source_file_index>
30

> <i_lp_mmshare_version>
58128

> <i_f3d_flags>
0

> <s_lp_Force_Field>
S-OPLS

> <r_lp_Energy>
82.572273

> <b_lp_Chiralities_Consistent>
1

> <s_lp_Variant>
Ceftazidime-2

> <s_epik_input>
W09IXUMoPU8pQyhbQ0gzXSkoW0NIM10pTy9OPUMoYzFbY0hdc2MobjEpW05IMl0pL0MoPU8pW05IXVtDQEBIXTJDKD1PKU4oW0NAQEhdMjMpQyhDKD1PKVtPSF0pPUMoW0NIMl1TMylbQ0gyXVtuK100W2NIXVtjSF1bY0hdW2NIXVtjSF00

> <s_epik_cmdline>
J2VwaWtfcHl0aG9uJywgJy1waHQnLCAnMC4wJywgJy1waCcsICc3LjQnLCAnLW50JywgJy1tYScsICc1MDAnLCAnLWltYWUnLCAnPGluZmlsZS5tYWU+JywgJy1vbWFlJywgJzxvdXRmaWxlLm1hZT4n

> <r_lp_tautomer_probability>
1

> <r_epik_Ionization_Penalty>
  0.0005

> <r_epik_Ionization_Penalty_Charging>
  0.0001

> <r_epik_Ionization_Penalty_Neutral>
  0.0005

> <r_epik_State_Penalty>
  0.0000

> <r_epik_Charging_Adjusted_Penalty>
5.84857251211915e-05

> <i_epik_Tot_Q>
-1

> <i_epik_Tot_abs_Q>
3

> <s_epik_Chemistry_Notes>
This compound has an imine and may undergo hydrolysis. This compound contains an acetal/aminal-like group ( X-CH(R)-Y where X, Y are N, S, or O) that may be acid/base labile, releasing an aldehyde.

> <s_m_subgroup_title>
glide-dock_Nicaido_neutral_pv1

> <s_m_subgroupid>
glide-dock_Nicaido_neutral_pv1

> <b_m_subgroup_collapsed>
0

$$$$
Ceftriaxone
                    3D
 Schrodinger Suite 2022-2.
 52 55  0  0  1  0            999 V2000
  -20.5315  -23.5403  -22.6594 C   0  0  0  0  0  0
  -21.9667  -23.5890  -22.9161 N   0  0  0  0  0  0
  -22.8196  -22.5265  -22.4977 C   0  0  0  0  0  0
  -21.9859  -21.2592  -21.4578 S   0  0  0  0  0  0
  -22.9905  -21.1491  -19.9279 C   0  0  0  0  0  0
  -24.5099  -21.0355  -20.0950 C   0  0  0  0  0  0
  -25.3761  -22.0615  -19.8683 C   0  0  0  0  0  0
  -26.7646  -21.9623  -20.0950 N   0  0  0  0  0  0
  -27.4707  -20.7059  -20.2621 C   0  0  2  0  0  0
  -28.7155  -21.5346  -20.6556 C   0  0  2  0  0  0
  -27.8910  -22.7645  -20.1907 C   0  0  0  0  0  0
  -28.0846  -23.9490  -19.9996 O   0  0  0  0  0  0
  -29.0192  -21.4242  -22.0937 N   0  0  0  0  0  0
  -29.3520  -22.3999  -22.9647 C   0  0  0  0  0  0
  -29.8772  -21.9216  -24.3150 C   0  0  0  0  0  0
  -29.9648  -20.4492  -24.5525 C   0  0  0  0  0  0
  -30.8037  -19.6437  -23.8135 C   0  0  0  0  0  0
  -30.7812  -17.9907  -24.3633 S   0  0  0  0  0  0
  -29.6432  -18.4640  -25.6117 C   0  0  0  0  0  0
  -29.1692  -17.5497  -26.5323 N   0  0  0  0  0  0
  -29.2999  -19.7528  -25.5732 N   0  0  0  0  0  0
  -30.2282  -22.7993  -25.1735 N   0  0  0  0  0  0
  -30.7731  -22.2721  -26.3536 O   0  0  0  0  0  0
  -31.8039  -23.1548  -26.7683 C   0  0  0  0  0  0
  -29.2782  -23.6098  -22.7234 O   0  0  0  0  0  0
  -26.5446  -19.6785  -21.4435 S   0  0  0  0  0  0
  -24.9638  -19.6556  -20.5596 C   0  0  0  0  0  0
  -24.8816  -23.5029  -19.5451 C   0  0  0  0  0  0
  -25.1697  -24.3496  -20.4143 O   0  5  0  0  0  0
  -24.2633  -23.6888  -18.4740 O   0  0  0  0  0  0
  -24.0696  -22.4099  -22.8323 N   0  0  0  0  0  0
  -24.6592  -23.3896  -23.6159 C   0  0  0  0  0  0
  -23.8039  -24.6437  -24.0064 C   0  0  0  0  0  0
  -24.3688  -25.5203  -24.6674 O   0  0  0  0  0  0
  -22.5024  -24.7134  -23.6130 N   0  5  0  0  0  0
  -25.8225  -23.3151  -24.0134 O   0  0  0  0  0  0
  -20.3281  -23.5719  -21.5874 H   0  0  0  0  0  0
  -20.0227  -24.3903  -23.1175 H   0  0  0  0  0  0
  -20.0924  -22.6339  -23.0788 H   0  0  0  0  0  0
  -22.6505  -20.2744  -19.3730 H   0  0  0  0  0  0
  -22.7035  -21.9930  -19.3069 H   0  0  0  0  0  0
  -27.5891  -20.1944  -19.3035 H   0  0  0  0  0  0
  -29.5679  -21.3045  -20.0173 H   0  0  0  0  0  0
  -29.0563  -20.4723  -22.4317 H   0  0  0  0  0  0
  -31.4413  -19.9164  -22.9835 H   0  0  0  0  0  0
  -28.1560  -17.5011  -26.6096 H   0  0  0  0  0  0
  -29.5184  -16.6044  -26.4108 H   0  0  0  0  0  0
  -32.2835  -22.7802  -27.6712 H   0  0  0  0  0  0
  -31.4198  -24.1528  -26.9832 H   0  0  0  0  0  0
  -32.5775  -23.2415  -26.0026 H   0  0  0  0  0  0
  -25.0420  -18.9982  -19.6935 H   0  0  0  0  0  0
  -24.2213  -19.2233  -21.2301 H   0  0  0  0  0  0
  1  2  1  0  0  0
  1 37  1  0  0  0
  1 38  1  0  0  0
  1 39  1  0  0  0
  2 35  1  0  0  0
  2  3  1  0  0  0
  3  4  1  0  0  0
  3 31  2  0  0  0
  4  5  1  0  0  0
  5  6  1  0  0  0
  5 40  1  0  0  0
  5 41  1  0  0  0
  6 27  1  0  0  0
  6  7  2  0  0  0
  7  8  1  0  0  0
  7 28  1  0  0  0
  8 11  1  0  0  0
  8  9  1  0  0  0
  9 10  1  0  0  0
  9 26  1  0  0  0
  9 42  1  0  0  0
 10 11  1  0  0  0
 10 13  1  0  0  0
 10 43  1  0  0  0
 11 12  2  0  0  0
 13 14  1  0  0  0
 13 44  1  0  0  0
 14 15  1  0  0  0
 14 25  2  0  0  0
 15 16  1  0  0  0
 15 22  2  3  0  0
 16 21  1  0  0  0
 16 17  2  0  0  0
 17 18  1  0  0  0
 17 45  1  0  0  0
 18 19  1  0  0  0
 19 20  1  0  0  0
 19 21  2  0  0  0
 20 46  1  0  0  0
 20 47  1  0  0  0
 22 23  1  0  0  0
 23 24  1  0  0  0
 24 48  1  0  0  0
 24 49  1  0  0  0
 24 50  1  0  0  0
 26 27  1  0  0  0
 27 51  1  0  0  0
 27 52  1  0  0  0
 28 29  1  0  0  0
 28 30  2  0  0  0
 31 32  1  0  0  0
 32 33  1  0  0  0
 32 36  2  0  0  0
 33 34  2  0  0  0
 33 35  1  0  0  0
M  CHG  2  29  -1  35  -1
M  END
> <s_m_entry_id>
27264

> <s_m_entry_name>
data_maestro.22

> <s_m_Source_Path>
C:\Users\olshana1\Git\GramNeg-Accumulation\Gram Negative Permeation - OmpF

> <s_m_Source_File>
data_maestro.csv

> <i_m_Source_File_Index>
22

> <s_m_job_name>
glide-dock_Nicaido_neutral

> <s_i_glide_gridfile>
3POX-grid

> <i_i_glide_lignum>
28

> <i_i_glide_rotatable_bonds>
9

> <r_i_docking_score>
-5.97989977286152

> <r_i_glide_ligand_efficiency>
-0.166108327023931

> <r_i_glide_ligand_efficiency_sa>
-0.548477610613458

> <r_i_glide_ligand_efficiency_ln>
-1.30465257221688

> <r_i_glide_gscore>
-5.97989977286152

> <r_i_glide_lipo>
0

> <r_i_glide_hbond>
-1.20688421615062

> <r_i_glide_metal>
0

> <r_i_glide_rewards>
0.368422659221771

> <r_i_glide_evdw>
-29.3895969390869

> <r_i_glide_ecoul>
-22.2399520874023

> <r_i_glide_erotb>
0.472124986767549

> <r_i_glide_esite>
-0.808090542635526

> <r_i_glide_emodel>
-86.4172524385469

> <r_i_glide_energy>
-51.6295490264893

> <r_i_glide_einternal>
11.2482471466064

> <i_i_glide_confnum>
162

> <i_i_glide_posenum>
216

> <r_i_glide_eff_state_penalty>
0

> <r_glide_res:A132_vdw>
1.7892890073874

> <r_glide_res:A132_coul>
-84.4911074985078

> <r_glide_res:A132_hbond>
-0.353771677268233

> <r_glide_res:A132_dist>
1.65701476620287

> <r_glide_res:A132_Eint>
-83.0555901683887

> <r_glide_res:A117_vdw>
-3.89128317560255

> <r_glide_res:A117_coul>
34.8921111902197

> <r_glide_res:A117_hbond>
-0.142246596469655

> <r_glide_res:A117_dist>
2.04397267577572

> <r_glide_res:A117_Eint>
30.8585814181475

> <r_glide_res:A113_vdw>
-2.67078431146861

> <r_glide_res:A113_coul>
29.3713946295421

> <r_glide_res:A113_hbond>
0

> <r_glide_res:A113_dist>
2.37145311649457

> <r_glide_res:A113_Eint>
26.7006103180735

> <r_glide_res:A82_vdw>
-1.97151328592085

> <r_glide_res:A82_coul>
-71.9896432169442

> <r_glide_res:A82_hbond>
-0.237470585277801

> <r_glide_res:A82_dist>
1.94705500128754

> <r_glide_res:A82_Eint>
-74.1986270881429

> <r_glide_res:A42_vdw>
-2.07562643713442

> <r_glide_res:A42_coul>
-59.1080445121912

> <r_glide_res:A42_hbond>
-0.0109102872798695

> <r_glide_res:A42_dist>
2.061029148656

> <r_glide_res:A42_Eint>
-61.1945812366055

> <r_glide_res:A16_vdw>
-1.59718839887526

> <r_glide_res:A16_coul>
-41.8549446005945

> <r_glide_res:A16_hbond>
0

> <r_glide_res:A16_dist>
2.11273064215991

> <r_glide_res:A16_Eint>
-43.4521329994697

> <s_m_source_file>
ligprep_Nicaido_neutral.maegz

> <i_m_source_file_index>
22

> <i_lp_mmshare_version>
58128

> <i_f3d_flags>
0

> <s_lp_Force_Field>
S-OPLS

> <r_lp_Energy>
109.903222

> <b_lp_Chiralities_Consistent>
1

> <s_lp_Variant>
Ceftriaxone-1

> <s_epik_input>
W09IXWMobjEpYyg9TyluYyhuMVtDSDNdKVNbQ0gyXUMoPUMyQyg9TylbT0hdKVtDSDJdU1tDQEhdKE4yMylbQ0BIXShDMz1PKVtOSF1DKD1PKS9DKD1OL09bQ0gzXSljNFtjSF1zYyhuNClbTkgyXQ==

> <s_epik_cmdline>
J2VwaWtfcHl0aG9uJywgJy1waHQnLCAnMC4wJywgJy1waCcsICc3LjQnLCAnLW50JywgJy1tYScsICc1MDAnLCAnLWltYWUnLCAnPGluZmlsZS5tYWU+JywgJy1vbWFlJywgJzxvdXRmaWxlLm1hZT4n

> <r_lp_tautomer_probability>
1

> <r_epik_Ionization_Penalty>
  0.0014

> <r_epik_Ionization_Penalty_Charging>
  0.0010

> <r_epik_Ionization_Penalty_Neutral>
  0.0004

> <r_epik_State_Penalty>
  0.0000

> <r_epik_Charging_Adjusted_Penalty>
0.000994184415634904

> <i_epik_Tot_Q>
-2

> <i_epik_Tot_abs_Q>
2

> <s_epik_Chemistry_Notes>
This compound has an imine and may undergo hydrolysis. This compound contains an acetal/aminal-like group ( X-CH(R)-Y where X, Y are N, S, or O) that may be acid/base labile, releasing an aldehyde.

> <s_m_subgroup_title>
glide-dock_Nicaido_neutral_pv1

> <s_m_subgroupid>
glide-dock_Nicaido_neutral_pv1

> <b_m_subgroup_collapsed>
0

$$$$
Ceftazidime
                    3D
 Schrodinger Suite 2022-2.
 58 61  0  0  1  0            999 V2000
  -33.2979  -18.3553  -28.9981 C   0  0  0  0  0  0
  -34.0352  -19.0176  -27.8057 C   0  0  0  0  0  0
  -35.3317  -18.2317  -27.5196 C   0  0  0  0  0  0
  -34.3743  -20.5043  -28.1102 C   0  0  0  0  0  0
  -33.5689  -21.1502  -28.8183 O   0  5  0  0  0  0
  -35.4118  -20.9912  -27.6102 O   0  0  0  0  0  0
  -33.2842  -18.9029  -26.5876 O   0  0  0  0  0  0
  -32.0029  -19.4789  -26.7132 N   0  0  0  0  0  0
  -31.4768  -19.7511  -25.5886 C   0  0  0  0  0  0
  -30.0980  -20.3758  -25.5137 C   0  0  0  0  0  0
  -29.4346  -20.0764  -24.3921 N   0  0  0  0  0  0
  -28.0630  -20.4456  -24.0757 C   0  0  1  0  0  0
  -27.7442  -20.0484  -22.6298 C   0  0  2  0  0  0
  -27.6704  -21.4627  -22.3039 N   0  0  0  0  0  0
  -27.5539  -21.9519  -20.9814 C   0  0  0  0  0  0
  -27.1561  -23.4819  -20.8729 C   0  0  0  0  0  0
  -27.6351  -24.1458  -19.9308 O   0  5  0  0  0  0
  -26.3712  -23.9490  -21.7309 O   0  0  0  0  0  0
  -27.7536  -21.1320  -19.9008 C   0  0  0  0  0  0
  -27.6599  -21.5556  -18.4316 C   0  0  0  0  0  0
  -26.2607  -21.6109  -17.9691 N   0  3  0  0  0  0
  -25.7249  -22.8051  -17.6140 C   0  0  0  0  0  0
  -24.4072  -22.8870  -17.1195 C   0  0  0  0  0  0
  -23.6457  -21.7094  -16.9953 C   0  0  0  0  0  0
  -24.2210  -20.4808  -17.3736 C   0  0  0  0  0  0
  -25.5438  -20.4630  -17.8600 C   0  0  0  0  0  0
  -28.1273  -19.6514  -20.0278 C   0  0  0  0  0  0
  -28.9821  -19.2671  -21.5589 S   0  0  0  0  0  0
  -27.8867  -21.9095  -23.6026 C   0  0  0  0  0  0
  -27.9685  -23.0144  -24.1013 O   0  0  0  0  0  0
  -29.6324  -21.0799  -26.4133 O   0  0  0  0  0  0
  -32.1463  -19.5302  -24.2802 C   0  0  0  0  0  0
  -32.0356  -18.3388  -23.6038 C   0  0  0  0  0  0
  -32.9133  -18.3576  -22.0985 S   0  0  0  0  0  0
  -33.4080  -20.0018  -22.4593 C   0  0  0  0  0  0
  -34.2346  -20.7107  -21.6121 N   0  0  0  0  0  0
  -32.9177  -20.4804  -23.6019 N   0  0  0  0  0  0
  -33.9202  -18.3626  -29.8940 H   0  0  0  0  0  0
  -33.0547  -17.3163  -28.7742 H   0  0  0  0  0  0
  -32.3656  -18.8565  -29.2532 H   0  0  0  0  0  0
  -36.0282  -18.2901  -28.3566 H   0  0  0  0  0  0
  -35.8424  -18.6123  -26.6339 H   0  0  0  0  0  0
  -35.1172  -17.1786  -27.3363 H   0  0  0  0  0  0
  -29.9012  -19.5150  -23.6899 H   0  0  0  0  0  0
  -27.3206  -20.0803  -24.7869 H   0  0  0  0  0  0
  -26.7708  -19.5648  -22.5260 H   0  0  0  0  0  0
  -28.1726  -20.8495  -17.7787 H   0  0  0  0  0  0
  -28.1493  -22.5091  -18.2424 H   0  0  0  0  0  0
  -26.3647  -23.6708  -17.7049 H   0  0  0  0  0  0
  -24.0019  -23.8409  -16.8188 H   0  0  0  0  0  0
  -22.6384  -21.7445  -16.6057 H   0  0  0  0  0  0
  -23.6649  -19.5588  -17.2770 H   0  0  0  0  0  0
  -26.0455  -19.5504  -18.1379 H   0  0  0  0  0  0
  -28.7689  -19.3238  -19.2127 H   0  0  0  0  0  0
  -27.2249  -19.0432  -19.9775 H   0  0  0  0  0  0
  -31.5037  -17.4428  -23.8937 H   0  0  0  0  0  0
  -34.2945  -21.7108  -21.7171 H   0  0  0  0  0  0
  -34.3671  -20.3598  -20.6667 H   0  0  0  0  0  0
  1  2  1  0  0  0
  1 38  1  0  0  0
  1 39  1  0  0  0
  1 40  1  0  0  0
  2  3  1  0  0  0
  2  4  1  0  0  0
  2  7  1  0  0  0
  3 41  1  0  0  0
  3 42  1  0  0  0
  3 43  1  0  0  0
  4  5  1  0  0  0
  4  6  2  0  0  0
  7  8  1  0  0  0
  8  9  2  3  0  0
  9 10  1  0  0  0
  9 32  1  0  0  0
 10 11  1  0  0  0
 10 31  2  0  0  0
 11 12  1  0  0  0
 11 44  1  0  0  0
 12 29  1  0  0  0
 12 13  1  0  0  0
 12 45  1  0  0  0
 13 28  1  0  0  0
 13 14  1  0  0  0
 13 46  1  0  0  0
 14 15  1  0  0  0
 14 29  1  0  0  0
 15 16  1  0  0  0
 15 19  2  0  0  0
 16 17  1  0  0  0
 16 18  2  0  0  0
 19 20  1  0  0  0
 19 27  1  0  0  0
 20 21  1  0  0  0
 20 47  1  0  0  0
 20 48  1  0  0  0
 21 26  1  0  0  0
 21 22  2  0  0  0
 22 23  1  0  0  0
 22 49  1  0  0  0
 23 24  2  0  0  0
 23 50  1  0  0  0
 24 25  1  0  0  0
 24 51  1  0  0  0
 25 26  2  0  0  0
 25 52  1  0  0  0
 26 53  1  0  0  0
 27 28  1  0  0  0
 27 54  1  0  0  0
 27 55  1  0  0  0
 29 30  2  0  0  0
 32 37  1  0  0  0
 32 33  2  0  0  0
 33 34  1  0  0  0
 33 56  1  0  0  0
 34 35  1  0  0  0
 35 36  1  0  0  0
 35 37  2  0  0  0
 36 57  1  0  0  0
 36 58  1  0  0  0
M  CHG  3   5  -1  17  -1  21   1
M  END
> <s_m_entry_id>
27265

> <s_m_entry_name>
data_maestro.30

> <s_m_Source_Path>
C:\Users\olshana1\Git\GramNeg-Accumulation\Gram Negative Permeation - OmpF

> <s_m_Source_File>
data_maestro.csv

> <i_m_Source_File_Index>
30

> <s_m_job_name>
glide-dock_Nicaido_neutral

> <s_i_glide_gridfile>
3POX-grid

> <i_i_glide_lignum>
38

> <i_i_glide_rotatable_bonds>
10

> <r_i_docking_score>
-5.95801930197104

> <r_i_glide_ligand_efficiency>
-0.16102754870192

> <r_i_glide_ligand_efficiency_sa>
-0.536579515855672

> <r_i_glide_ligand_efficiency_ln>
-1.29215471080774

> <r_i_glide_gscore>
-5.95801930197104

> <r_i_glide_lipo>
0

> <r_i_glide_hbond>
-1.13193831414854

> <r_i_glide_metal>
0

> <r_i_glide_rewards>
0.0364765569897659

> <r_i_glide_evdw>
-34.9569396972656

> <r_i_glide_ecoul>
-19.9299869537354

> <r_i_glide_erotb>
0.556495996469625

> <r_i_glide_esite>
-0.681708513358303

> <r_i_glide_emodel>
-95.4926015329395

> <r_i_glide_energy>
-54.886926651001

> <r_i_glide_einternal>
6.29848289489746

> <i_i_glide_confnum>
100

> <i_i_glide_posenum>
362

> <r_i_glide_eff_state_penalty>
0

> <r_glide_res:A132_vdw>
1.1525496602526

> <r_glide_res:A132_coul>
-41.8503473707285

> <r_glide_res:A132_hbond>
-0.364577348066235

> <r_glide_res:A132_dist>
1.7568177252856

> <r_glide_res:A132_Eint>
-41.0623750585422

> <r_glide_res:A117_vdw>
-3.25958538224657

> <r_glide_res:A117_coul>
12.7798751145014

> <r_glide_res:A117_hbond>
0

> <r_glide_res:A117_dist>
2.85792484621732

> <r_glide_res:A117_Eint>
9.52028973225483

> <r_glide_res:A113_vdw>
-4.65445374328758

> <r_glide_res:A113_coul>
8.51645096078203

> <r_glide_res:A113_hbond>
-0.32

> <r_glide_res:A113_dist>
2.05158596100659

> <r_glide_res:A113_Eint>
3.54199721749445

> <r_glide_res:A82_vdw>
-1.76396715570654

> <r_glide_res:A82_coul>
-41.1859776951988

> <r_glide_res:A82_hbond>
-0.0354711241723959

> <r_glide_res:A82_dist>
2.42122443560097

> <r_glide_res:A82_Eint>
-42.9854159750778

> <r_glide_res:A42_vdw>
-2.06142144973732

> <r_glide_res:A42_coul>
-38.836488271434

> <r_glide_res:A42_hbond>
-0.0518898419099092

> <r_glide_res:A42_dist>
2.33749822866235

> <r_glide_res:A42_Eint>
-40.9497995630813

> <r_glide_res:A16_vdw>
0.0372687611229107

> <r_glide_res:A16_coul>
-65.2527819649897

> <r_glide_res:A16_hbond>
-0.36

> <r_glide_res:A16_dist>
1.79236333141165

> <r_glide_res:A16_Eint>
-65.5755132038667

> <s_m_source_file>
ligprep_Nicaido_neutral.maegz

> <i_m_source_file_index>
30

> <i_lp_mmshare_version>
58128

> <i_f3d_flags>
0

> <s_lp_Force_Field>
S-OPLS

> <r_lp_Energy>
86.633473

> <b_lp_Chiralities_Consistent>
1

> <s_lp_Variant>
Ceftazidime-1

> <s_epik_input>
W09IXUMoPU8pQyhbQ0gzXSkoW0NIM10pTy9OPUMoYzFbY0hdc2MobjEpW05IMl0pL0MoPU8pW05IXVtDQEBIXTJDKD1PKU4oW0NAQEhdMjMpQyhDKD1PKVtPSF0pPUMoW0NIMl1TMylbQ0gyXVtuK100W2NIXVtjSF1bY0hdW2NIXVtjSF00

> <s_epik_cmdline>
J2VwaWtfcHl0aG9uJywgJy1waHQnLCAnMC4wJywgJy1waCcsICc3LjQnLCAnLW50JywgJy1tYScsICc1MDAnLCAnLWltYWUnLCAnPGluZmlsZS5tYWU+JywgJy1vbWFlJywgJzxvdXRmaWxlLm1hZT4n

> <r_lp_tautomer_probability>
1

> <r_epik_Ionization_Penalty>
  0.0005

> <r_epik_Ionization_Penalty_Charging>
  0.0001

> <r_epik_Ionization_Penalty_Neutral>
  0.0005

> <r_epik_State_Penalty>
  0.0000

> <r_epik_Charging_Adjusted_Penalty>
5.84857251211915e-05

> <i_epik_Tot_Q>
-1

> <i_epik_Tot_abs_Q>
3

> <s_epik_Chemistry_Notes>
This compound has an imine and may undergo hydrolysis. This compound contains an acetal/aminal-like group ( X-CH(R)-Y where X, Y are N, S, or O) that may be acid/base labile, releasing an aldehyde.

> <s_m_subgroup_title>
glide-dock_Nicaido_neutral_pv1

> <s_m_subgroupid>
glide-dock_Nicaido_neutral_pv1

> <b_m_subgroup_collapsed>
0

$$$$
Cefsulodin
                    3D
 Schrodinger Suite 2022-2.
 55 58  0  0  1  0            999 V2000
  -25.3197  -22.9601  -24.4134 O   0  0  0  0  0  0
  -25.3910  -22.0172  -23.6589 C   0  0  0  0  0  0
  -24.3895  -21.1315  -22.8892 C   0  0  2  0  0  0
  -23.4635  -21.8698  -22.0077 N   0  0  0  0  0  0
  -23.6085  -23.0891  -21.4421 C   0  0  0  0  0  0
  -22.3726  -23.6652  -20.7394 C   0  0  2  0  0  0
  -21.9822  -25.3703  -21.3733 S   0  0  0  0  0  0
  -20.7838  -25.7700  -20.6185 O   0  0  0  0  0  0
  -21.7452  -25.1497  -22.8127 O   0  5  0  0  0  0
  -23.1630  -26.2054  -21.0906 O   0  0  0  0  0  0
  -22.5397  -23.5879  -19.2230 C   0  0  0  0  0  0
  -21.6372  -22.8101  -18.4629 C   0  0  0  0  0  0
  -21.8609  -22.5966  -17.0886 C   0  0  0  0  0  0
  -22.9947  -23.1496  -16.4662 C   0  0  0  0  0  0
  -23.8817  -23.9489  -17.2134 C   0  0  0  0  0  0
  -23.6443  -24.1870  -18.5772 C   0  0  0  0  0  0
  -24.6588  -23.7359  -21.4578 O   0  0  0  0  0  0
  -25.6280  -20.5177  -22.2047 C   0  0  1  0  0  0
  -26.4362  -21.5061  -22.9082 N   0  0  0  0  0  0
  -27.7620  -21.8512  -22.5679 C   0  0  0  0  0  0
  -28.4305  -22.9274  -23.5116 C   0  0  0  0  0  0
  -28.8879  -23.9494  -22.9493 O   0  5  0  0  0  0
  -28.3956  -22.7185  -24.7495 O   0  0  0  0  0  0
  -28.3988  -21.3036  -21.4927 C   0  0  0  0  0  0
  -29.8348  -21.6305  -21.0818 C   0  0  0  0  0  0
  -30.8221  -20.7846  -21.7930 N   0  3  0  0  0  0
  -30.8349  -19.4384  -21.6135 C   0  0  0  0  0  0
  -31.7774  -18.6243  -22.2765 C   0  0  0  0  0  0
  -32.7373  -19.2196  -23.1303 C   0  0  0  0  0  0
  -33.7832  -18.4160  -23.8606 C   0  0  0  0  0  0
  -33.9693  -17.1496  -23.4850 N   0  0  0  0  0  0
  -34.4656  -18.9260  -24.7458 O   0  0  0  0  0  0
  -32.6912  -20.6225  -23.2989 C   0  0  0  0  0  0
  -31.7180  -21.3822  -22.6183 C   0  0  0  0  0  0
  -27.7181  -20.3237  -20.5333 C   0  0  0  0  0  0
  -25.9406  -20.5966  -20.4170 S   0  0  0  0  0  0
  -23.8772  -20.3989  -23.5134 H   0  0  0  0  0  0
  -22.5746  -21.4150  -21.8667 H   0  0  0  0  0  0
  -21.5046  -23.0705  -21.0174 H   0  0  0  0  0  0
  -20.7878  -22.3389  -18.9351 H   0  0  0  0  0  0
  -21.1808  -21.9800  -16.5199 H   0  0  0  0  0  0
  -23.1884  -22.9549  -15.4209 H   0  0  0  0  0  0
  -24.7639  -24.3642  -16.7500 H   0  0  0  0  0  0
  -24.3506  -24.7820  -19.1366 H   0  0  0  0  0  0
  -25.8508  -19.5162  -22.5799 H   0  0  0  0  0  0
  -30.0819  -22.6763  -21.2473 H   0  0  0  0  0  0
  -29.9706  -21.4920  -20.0138 H   0  0  0  0  0  0
  -30.1149  -19.0376  -20.9158 H   0  0  0  0  0  0
  -31.7483  -17.5569  -22.1038 H   0  0  0  0  0  0
  -33.3596  -16.7069  -22.8089 H   0  0  0  0  0  0
  -34.6903  -16.6086  -23.9363 H   0  0  0  0  0  0
  -33.4047  -21.1195  -23.9412 H   0  0  0  0  0  0
  -31.6509  -22.4561  -22.7149 H   0  0  0  0  0  0
  -27.8944  -19.2986  -20.8631 H   0  0  0  0  0  0
  -28.1227  -20.4119  -19.5234 H   0  0  0  0  0  0
  1  2  2  0  0  0
  2 19  1  0  0  0
  2  3  1  0  0  0
  3  4  1  0  0  0
  3 18  1  0  0  0
  3 37  1  0  0  0
  4  5  1  0  0  0
  4 38  1  0  0  0
  5  6  1  0  0  0
  5 17  2  0  0  0
  6  7  1  0  0  0
  6 11  1  0  0  0
  6 39  1  0  0  0
  7  8  2  0  0  0
  7  9  1  0  0  0
  7 10  2  0  0  0
 11 16  1  0  0  0
 11 12  2  0  0  0
 12 13  1  0  0  0
 12 40  1  0  0  0
 13 14  2  0  0  0
 13 41  1  0  0  0
 14 15  1  0  0  0
 14 42  1  0  0  0
 15 16  2  0  0  0
 15 43  1  0  0  0
 16 44  1  0  0  0
 18 36  1  0  0  0
 18 19  1  0  0  0
 18 45  1  0  0  0
 19 20  1  0  0  0
 20 21  1  0  0  0
 20 24  2  0  0  0
 21 22  1  0  0  0
 21 23  2  0  0  0
 24 25  1  0  0  0
 24 35  1  0  0  0
 25 26  1  0  0  0
 25 46  1  0  0  0
 25 47  1  0  0  0
 26 34  1  0  0  0
 26 27  2  0  0  0
 27 28  1  0  0  0
 27 48  1  0  0  0
 28 29  2  0  0  0
 28 49  1  0  0  0
 29 30  1  0  0  0
 29 33  1  0  0  0
 30 31  1  0  0  0
 30 32  2  0  0  0
 31 50  1  0  0  0
 31 51  1  0  0  0
 33 34  2  0  0  0
 33 52  1  0  0  0
 34 53  1  0  0  0
 35 36  1  0  0  0
 35 54  1  0  0  0
 35 55  1  0  0  0
M  CHG  3   9  -1  22  -1  26   1
M  END
> <s_m_entry_id>
27266

> <s_m_entry_name>
data_maestro.27

> <s_m_Source_Path>
C:\Users\olshana1\Git\GramNeg-Accumulation\Gram Negative Permeation - OmpF

> <s_m_Source_File>
data_maestro.csv

> <i_m_Source_File_Index>
27

> <s_m_job_name>
glide-dock_Nicaido_neutral

> <s_i_glide_gridfile>
3POX-grid

> <i_i_glide_lignum>
34

> <i_i_glide_rotatable_bonds>
9

> <r_i_docking_score>
-5.93115456341515

> <r_i_glide_ligand_efficiency>
-0.164754293428199

> <r_i_glide_ligand_efficiency_sa>
-0.54400669019313

> <r_i_glide_ligand_efficiency_ln>
-1.29401768445904

> <r_i_glide_gscore>
-5.93115456341515

> <r_i_glide_lipo>
0

> <r_i_glide_hbond>
-1.13243893301877

> <r_i_glide_metal>
0

> <r_i_glide_rewards>
0.00305644745814741

> <r_i_glide_evdw>
-25.351957321167

> <r_i_glide_ecoul>
-22.3712978363037

> <r_i_glide_erotb>
0.364921022123239

> <r_i_glide_esite>
-0.543400558473862

> <r_i_glide_emodel>
-87.0548765916261

> <r_i_glide_energy>
-47.7232551574707

> <r_i_glide_einternal>
10.9024362564087

> <i_i_glide_confnum>
17

> <i_i_glide_posenum>
280

> <r_i_glide_eff_state_penalty>
0

> <r_glide_res:A132_vdw>
-1.98347456979329

> <r_glide_res:A132_coul>
-50.9595968116207

> <r_glide_res:A132_hbond>
-0.0217412563951324

> <r_glide_res:A132_dist>
2.22974030601765

> <r_glide_res:A132_Eint>
-52.9648126378091

> <r_glide_res:A117_vdw>
-2.40977650592269

> <r_glide_res:A117_coul>
11.7001364941399

> <r_glide_res:A117_hbond>
0

> <r_glide_res:A117_dist>
3.10662368876278

> <r_glide_res:A117_Eint>
9.2903599882172

> <r_glide_res:A113_vdw>
-3.14715044569061

> <r_glide_res:A113_coul>
-6.90943402521383

> <r_glide_res:A113_hbond>
0

> <r_glide_res:A113_dist>
2.29876361058389

> <r_glide_res:A113_Eint>
-10.0565844709044

> <r_glide_res:A82_vdw>
-1.11138690666146

> <r_glide_res:A82_coul>
-53.7386805051137

> <r_glide_res:A82_hbond>
-0.268400493310152

> <r_glide_res:A82_dist>
1.91485887787045

> <r_glide_res:A82_Eint>
-55.1184679050853

> <r_glide_res:A42_vdw>
-0.0710628032967997

> <r_glide_res:A42_coul>
-48.5827443626402

> <r_glide_res:A42_hbond>
-0.322297183313484

> <r_glide_res:A42_dist>
2.10959129464556

> <r_glide_res:A42_Eint>
-48.9761043492505

> <r_glide_res:A16_vdw>
-0.362825553026941

> <r_glide_res:A16_coul>
-20.7804117022949

> <r_glide_res:A16_hbond>
0

> <r_glide_res:A16_dist>
4.16918690301023

> <r_glide_res:A16_Eint>
-21.1432372553218

> <s_m_source_file>
ligprep_Nicaido_neutral.maegz

> <i_m_source_file_index>
27

> <i_lp_mmshare_version>
58128

> <i_f3d_flags>
0

> <s_lp_Force_Field>
S-OPLS

> <r_lp_Energy>
54.611133

> <b_lp_Chiralities_Consistent>
1

> <s_lp_Variant>
Cefsulodin-1

> <s_epik_input>
W05IMl1DKD1PKWMoW2NIXVtjSF0xKVtjSF1bY0hdW24rXTFbQ0gyXUMoW0NIMl1TMik9QyhDKD1PKVtPSF0pTihbQ0BASF0yMylDKD1PKVtDQEBIXTNbTkhdQyg9TylbQ0BIXShTKD1PKSg9TylbT0hdKWM0W2NIXVtjSF1bY0hdW2NIXVtjSF00

> <s_epik_cmdline>
J2VwaWtfcHl0aG9uJywgJy1waHQnLCAnMC4wJywgJy1waCcsICc3LjQnLCAnLW50JywgJy1tYScsICc1MDAnLCAnLWltYWUnLCAnPGluZmlsZS5tYWU+JywgJy1vbWFlJywgJzxvdXRmaWxlLm1hZT4n

> <r_lp_tautomer_probability>
1

> <r_epik_Ionization_Penalty>
  0.0010

> <r_epik_Ionization_Penalty_Charging>
  0.0000

> <r_epik_Ionization_Penalty_Neutral>
  0.0010

> <r_epik_State_Penalty>
  0.0000

> <r_epik_Charging_Adjusted_Penalty>
1.59615623662622e-05

> <i_epik_Tot_Q>
-1

> <i_epik_Tot_abs_Q>
3

> <s_epik_Chemistry_Notes>
This compound contains an acetal/aminal-like group ( X-CH(R)-Y where X, Y are N, S, or O) that may be acid/base labile, releasing an aldehyde.

> <s_m_subgroup_title>
glide-dock_Nicaido_neutral_pv1

> <s_m_subgroupid>
glide-dock_Nicaido_neutral_pv1

> <b_m_subgroup_collapsed>
0

$$$$
Ceftazidime
                    3D
 Schrodinger Suite 2022-2.
 58 61  0  0  1  0            999 V2000
  -35.4266  -22.2575  -26.6372 C   0  0  0  0  0  0
  -33.9466  -22.6511  -26.7866 C   0  0  0  0  0  0
  -33.7221  -24.0740  -26.2174 C   0  0  0  0  0  0
  -33.5683  -22.5565  -28.2870 C   0  0  0  0  0  0
  -33.5689  -21.4186  -28.8120 O   0  5  0  0  0  0
  -33.1755  -23.5907  -28.8724 O   0  0  0  0  0  0
  -33.2360  -21.6841  -25.9973 O   0  0  0  0  0  0
  -31.8388  -21.8896  -26.0506 N   0  0  0  0  0  0
  -31.2267  -21.3690  -25.0634 C   0  0  0  0  0  0
  -29.7094  -21.4285  -25.0119 C   0  0  0  0  0  0
  -29.1504  -20.8911  -23.9185 N   0  0  0  0  0  0
  -27.7177  -20.8130  -23.6490 C   0  0  1  0  0  0
  -27.4456  -20.2367  -22.2515 C   0  0  2  0  0  0
  -27.1631  -21.5943  -21.8112 N   0  0  0  0  0  0
  -26.9129  -21.9277  -20.4639 C   0  0  0  0  0  0
  -26.3309  -23.3623  -20.1867 C   0  0  0  0  0  0
  -25.1646  -23.4059  -19.7421 O   0  5  0  0  0  0
  -27.0696  -24.3486  -20.4225 O   0  0  0  0  0  0
  -27.2146  -21.0743  -19.4472 C   0  0  0  0  0  0
  -26.9773  -21.3972  -17.9724 C   0  0  0  0  0  0
  -25.5700  -21.1935  -17.5420 N   0  3  0  0  0  0
  -24.9178  -22.2118  -16.9209 C   0  0  0  0  0  0
  -23.6117  -22.0347  -16.4204 C   0  0  0  0  0  0
  -22.9806  -20.7851  -16.5733 C   0  0  0  0  0  0
  -23.6758  -19.7421  -17.2151 C   0  0  0  0  0  0
  -24.9839  -19.9755  -17.6875 C   0  0  0  0  0  0
  -27.8991  -19.7192  -19.6532 C   0  0  0  0  0  0
  -28.7689  -19.5570  -21.2221 S   0  0  0  0  0  0
  -27.1138  -22.1231  -23.0885 C   0  0  0  0  0  0
  -26.7391  -23.1863  -23.5329 O   0  0  0  0  0  0
  -29.0542  -21.9495  -25.9178 O   0  0  0  0  0  0
  -31.9239  -20.7581  -23.8976 C   0  0  0  0  0  0
  -31.8074  -19.4275  -23.5552 C   0  0  0  0  0  0
  -32.7693  -19.0306  -22.1537 S   0  0  0  0  0  0
  -33.3260  -20.6966  -22.1217 C   0  0  0  0  0  0
  -34.2562  -21.1479  -21.2119 N   0  0  0  0  0  0
  -32.7859  -21.4679  -23.0578 N   0  0  0  0  0  0
  -36.0766  -22.9290  -27.1992 H   0  0  0  0  0  0
  -35.7357  -22.2934  -25.5921 H   0  0  0  0  0  0
  -35.6081  -21.2431  -26.9958 H   0  0  0  0  0  0
  -34.3599  -24.8043  -26.7170 H   0  0  0  0  0  0
  -32.6917  -24.4091  -26.3373 H   0  0  0  0  0  0
  -33.9554  -24.1067  -25.1536 H   0  0  0  0  0  0
  -29.7498  -20.4956  -23.2039 H   0  0  0  0  0  0
  -27.1372  -20.3155  -24.4271 H   0  0  0  0  0  0
  -26.5512  -19.6103  -22.2130 H   0  0  0  0  0  0
  -27.5921  -20.7564  -17.3442 H   0  0  0  0  0  0
  -27.2778  -22.4216  -17.7487 H   0  0  0  0  0  0
  -25.4555  -23.1440  -16.8219 H   0  0  0  0  0  0
  -23.1071  -22.8423  -15.9122 H   0  0  0  0  0  0
  -21.9835  -20.6230  -16.1898 H   0  0  0  0  0  0
  -23.2229  -18.7661  -17.3241 H   0  0  0  0  0  0
  -25.5725  -19.1998  -18.1497 H   0  0  0  0  0  0
  -28.6387  -19.5499  -18.8730 H   0  0  0  0  0  0
  -27.1650  -18.9163  -19.6131 H   0  0  0  0  0  0
  -31.2221  -18.6536  -24.0314 H   0  0  0  0  0  0
  -34.3302  -22.1446  -21.0756 H   0  0  0  0  0  0
  -34.3685  -20.5982  -20.3614 H   0  0  0  0  0  0
  1  2  1  0  0  0
  1 38  1  0  0  0
  1 39  1  0  0  0
  1 40  1  0  0  0
  2  3  1  0  0  0
  2  4  1  0  0  0
  2  7  1  0  0  0
  3 41  1  0  0  0
  3 42  1  0  0  0
  3 43  1  0  0  0
  4  5  1  0  0  0
  4  6  2  0  0  0
  7  8  1  0  0  0
  8  9  2  3  0  0
  9 10  1  0  0  0
  9 32  1  0  0  0
 10 11  1  0  0  0
 10 31  2  0  0  0
 11 12  1  0  0  0
 11 44  1  0  0  0
 12 29  1  0  0  0
 12 13  1  0  0  0
 12 45  1  0  0  0
 13 28  1  0  0  0
 13 14  1  0  0  0
 13 46  1  0  0  0
 14 15  1  0  0  0
 14 29  1  0  0  0
 15 16  1  0  0  0
 15 19  2  0  0  0
 16 17  1  0  0  0
 16 18  2  0  0  0
 19 20  1  0  0  0
 19 27  1  0  0  0
 20 21  1  0  0  0
 20 47  1  0  0  0
 20 48  1  0  0  0
 21 26  1  0  0  0
 21 22  2  0  0  0
 22 23  1  0  0  0
 22 49  1  0  0  0
 23 24  2  0  0  0
 23 50  1  0  0  0
 24 25  1  0  0  0
 24 51  1  0  0  0
 25 26  2  0  0  0
 25 52  1  0  0  0
 26 53  1  0  0  0
 27 28  1  0  0  0
 27 54  1  0  0  0
 27 55  1  0  0  0
 29 30  2  0  0  0
 32 37  1  0  0  0
 32 33  2  0  0  0
 33 34  1  0  0  0
 33 56  1  0  0  0
 34 35  1  0  0  0
 35 36  1  0  0  0
 35 37  2  0  0  0
 36 57  1  0  0  0
 36 58  1  0  0  0
M  CHG  3   5  -1  17  -1  21   1
M  END
> <s_m_entry_id>
27267

> <s_m_entry_name>
data_maestro.30

> <s_m_Source_Path>
C:\Users\olshana1\Git\GramNeg-Accumulation\Gram Negative Permeation - OmpF

> <s_m_Source_File>
data_maestro.csv

> <i_m_Source_File_Index>
30

> <s_m_job_name>
glide-dock_Nicaido_neutral

> <s_i_glide_gridfile>
3POX-grid

> <i_i_glide_lignum>
38

> <i_i_glide_rotatable_bonds>
10

> <r_i_docking_score>
-5.92888164221358

> <r_i_glide_ligand_efficiency>
-0.160240044384151

> <r_i_glide_ligand_efficiency_sa>
-0.533955376762895

> <r_i_glide_ligand_efficiency_ln>
-1.28583543549001

> <r_i_glide_gscore>
-5.92888164221358

> <r_i_glide_lipo>
0

> <r_i_glide_hbond>
-1.10418823348035

> <r_i_glide_metal>
0

> <r_i_glide_rewards>
0.0535465068961436

> <r_i_glide_evdw>
-31.0866432189941

> <r_i_glide_ecoul>
-21.1247577667236

> <r_i_glide_erotb>
0.556495996469625

> <r_i_glide_esite>
-0.711690086140747

> <r_i_glide_emodel>
-92.0352599033313

> <r_i_glide_energy>
-52.2114009857178

> <r_i_glide_einternal>
7.33558654785156

> <i_i_glide_confnum>
336

> <i_i_glide_posenum>
144

> <r_i_glide_eff_state_penalty>
0

> <r_glide_res:A132_vdw>
3.94560479012532

> <r_glide_res:A132_coul>
-45.3468759970068

> <r_glide_res:A132_hbond>
-0.32010890680029

> <r_glide_res:A132_dist>
1.78197762122881

> <r_glide_res:A132_Eint>
-41.7213801136817

> <r_glide_res:A117_vdw>
-2.71093382138086

> <r_glide_res:A117_coul>
13.0164825933943

> <r_glide_res:A117_hbond>
0

> <r_glide_res:A117_dist>
2.96837968024148

> <r_glide_res:A117_Eint>
10.3055487720134

> <r_glide_res:A113_vdw>
-4.1490367476136

> <r_glide_res:A113_coul>
8.95590083513541

> <r_glide_res:A113_hbond>
-0.32

> <r_glide_res:A113_dist>
1.91993254743959

> <r_glide_res:A113_Eint>
4.4868640875218

> <r_glide_res:A82_vdw>
-1.4110633207249

> <r_glide_res:A82_coul>
-40.3505181678126

> <r_glide_res:A82_hbond>
-0.111098871461975

> <r_glide_res:A82_dist>
2.12661085049724

> <r_glide_res:A82_Eint>
-41.8726803599995

> <r_glide_res:A42_vdw>
-1.24490373561357

> <r_glide_res:A42_coul>
-44.1308640992535

> <r_glide_res:A42_hbond>
-0.152980455218085

> <r_glide_res:A42_dist>
1.89890270144038

> <r_glide_res:A42_Eint>
-45.5287482900851

> <r_glide_res:A16_vdw>
-1.77284049992202

> <r_glide_res:A16_coul>
-64.8500818296326

> <r_glide_res:A16_hbond>
-0.2

> <r_glide_res:A16_dist>
1.82092244920972

> <r_glide_res:A16_Eint>
-66.8229223295546

> <s_m_source_file>
ligprep_Nicaido_neutral.maegz

> <i_m_source_file_index>
30

> <i_lp_mmshare_version>
58128

> <i_f3d_flags>
0

> <s_lp_Force_Field>
S-OPLS

> <r_lp_Energy>
86.633473

> <b_lp_Chiralities_Consistent>
1

> <s_lp_Variant>
Ceftazidime-1

> <s_epik_input>
W09IXUMoPU8pQyhbQ0gzXSkoW0NIM10pTy9OPUMoYzFbY0hdc2MobjEpW05IMl0pL0MoPU8pW05IXVtDQEBIXTJDKD1PKU4oW0NAQEhdMjMpQyhDKD1PKVtPSF0pPUMoW0NIMl1TMylbQ0gyXVtuK100W2NIXVtjSF1bY0hdW2NIXVtjSF00

> <s_epik_cmdline>
J2VwaWtfcHl0aG9uJywgJy1waHQnLCAnMC4wJywgJy1waCcsICc3LjQnLCAnLW50JywgJy1tYScsICc1MDAnLCAnLWltYWUnLCAnPGluZmlsZS5tYWU+JywgJy1vbWFlJywgJzxvdXRmaWxlLm1hZT4n

> <r_lp_tautomer_probability>
1

> <r_epik_Ionization_Penalty>
  0.0005

> <r_epik_Ionization_Penalty_Charging>
  0.0001

> <r_epik_Ionization_Penalty_Neutral>
  0.0005

> <r_epik_State_Penalty>
  0.0000

> <r_epik_Charging_Adjusted_Penalty>
5.84857251211915e-05

> <i_epik_Tot_Q>
-1

> <i_epik_Tot_abs_Q>
3

> <s_epik_Chemistry_Notes>
This compound has an imine and may undergo hydrolysis. This compound contains an acetal/aminal-like group ( X-CH(R)-Y where X, Y are N, S, or O) that may be acid/base labile, releasing an aldehyde.

> <s_m_subgroup_title>
glide-dock_Nicaido_neutral_pv1

> <s_m_subgroupid>
glide-dock_Nicaido_neutral_pv1

> <b_m_subgroup_collapsed>
0

$$$$
Nocardicin B
                    3D
 Schrodinger Suite 2022-2.
 59 61  0  0  1  0            999 V2000
  -36.7665  -29.5090  -26.6214 O   0  0  0  0  0  0
  -36.8684  -28.3321  -26.3414 C   0  0  0  0  0  0
  -36.6571  -27.4532  -25.0990 C   0  0  2  0  0  0
  -37.1374  -26.3002  -25.9858 C   0  0  0  0  0  0
  -37.2879  -27.2582  -27.0892 N   0  0  0  0  0  0
  -37.7603  -27.1634  -28.4693 C   0  0  2  0  0  0
  -36.9751  -26.1701  -29.2682 C   0  0  0  0  0  0
  -36.3692  -26.5886  -30.4747 C   0  0  0  0  0  0
  -35.5973  -25.7115  -31.2570 C   0  0  0  0  0  0
  -35.4239  -24.3818  -30.8521 C   0  0  0  0  0  0
  -36.0380  -23.9235  -29.6740 C   0  0  0  0  0  0
  -36.8003  -24.8134  -28.8929 C   0  0  0  0  0  0
  -34.6655  -23.5495  -31.6131 O   0  0  0  0  0  0
  -39.2407  -26.7598  -28.5732 C   0  0  0  0  0  0
  -39.9725  -27.5507  -29.2089 O   0  5  0  0  0  0
  -39.6292  -25.7241  -27.9882 O   0  0  0  0  0  0
  -35.2563  -27.2965  -24.7186 N   0  0  0  0  0  0
  -34.8069  -26.3567  -23.8721 C   0  0  0  0  0  0
  -33.2850  -26.2107  -23.8268 C   0  0  0  0  0  0
  -32.8419  -24.8546  -23.4189 C   0  0  0  0  0  0
  -32.9936  -24.3768  -22.0972 C   0  0  0  0  0  0
  -32.5596  -23.0805  -21.7509 C   0  0  0  0  0  0
  -31.9633  -22.2343  -22.7082 C   0  0  0  0  0  0
  -31.7834  -22.7303  -24.0226 C   0  0  0  0  0  0
  -32.2186  -24.0216  -24.3709 C   0  0  0  0  0  0
  -31.6101  -20.9656  -22.2910 O   0  0  0  0  0  0
  -31.0698  -20.0343  -23.2260 C   0  0  0  0  0  0
  -29.5281  -20.0576  -23.2068 C   0  0  0  0  0  0
  -28.8815  -19.7286  -24.5758 C   0  0  2  0  0  0
  -28.7921  -21.0009  -25.4447 C   0  0  0  0  0  0
  -27.9615  -21.8835  -25.1303 O   0  5  0  0  0  0
  -29.5753  -21.1026  -26.4130 O   0  0  0  0  0  0
  -27.5318  -19.1496  -24.4094 N   0  3  0  0  0  0
  -32.3688  -27.0495  -24.1375 N   0  0  0  0  0  0
  -32.8586  -28.3593  -24.4133 O   0  0  0  0  0  0
  -35.5568  -25.6110  -23.2409 O   0  0  0  0  0  0
  -37.3308  -27.6590  -24.2662 H   0  0  0  0  0  0
  -38.0787  -25.8603  -25.6522 H   0  0  0  0  0  0
  -36.3882  -25.5275  -26.1660 H   0  0  0  0  0  0
  -37.6517  -28.1543  -28.9133 H   0  0  0  0  0  0
  -36.4897  -27.6079  -30.8114 H   0  0  0  0  0  0
  -35.1446  -26.0505  -32.1770 H   0  0  0  0  0  0
  -35.9270  -22.8948  -29.3640 H   0  0  0  0  0  0
  -37.2743  -24.4392  -27.9981 H   0  0  0  0  0  0
  -34.9871  -22.6515  -31.6096 H   0  0  0  0  0  0
  -34.5644  -27.8837  -25.1705 H   0  0  0  0  0  0
  -33.4551  -24.9977  -21.3419 H   0  0  0  0  0  0
  -32.6975  -22.7242  -20.7391 H   0  0  0  0  0  0
  -31.3249  -22.1417  -24.7968 H   0  0  0  0  0  0
  -32.0816  -24.3664  -25.3856 H   0  0  0  0  0  0
  -31.3989  -19.0418  -22.9162 H   0  0  0  0  0  0
  -31.4839  -20.1455  -24.2270 H   0  0  0  0  0  0
  -29.1863  -21.0325  -22.8558 H   0  0  0  0  0  0
  -29.1898  -19.3520  -22.4458 H   0  0  0  0  0  0
  -29.4770  -18.9697  -25.0857 H   0  0  0  0  0  0
  -27.1667  -18.8658  -25.3079 H   0  0  0  0  0  0
  -27.5704  -18.3409  -23.7993 H   0  0  0  0  0  0
  -32.1626  -28.7437  -24.9548 H   0  0  0  0  0  0
  -26.9244  -19.8494  -24.0090 H   0  0  0  0  0  0
  1  2  2  0  0  0
  2  5  1  0  0  0
  2  3  1  0  0  0
  3  4  1  0  0  0
  3 17  1  0  0  0
  3 37  1  0  0  0
  4  5  1  0  0  0
  4 38  1  0  0  0
  4 39  1  0  0  0
  5  6  1  0  0  0
  6  7  1  0  0  0
  6 14  1  0  0  0
  6 40  1  0  0  0
  7 12  1  0  0  0
  7  8  2  0  0  0
  8  9  1  0  0  0
  8 41  1  0  0  0
  9 10  2  0  0  0
  9 42  1  0  0  0
 10 11  1  0  0  0
 10 13  1  0  0  0
 11 12  2  0  0  0
 11 43  1  0  0  0
 12 44  1  0  0  0
 13 45  1  0  0  0
 14 15  1  0  0  0
 14 16  2  0  0  0
 17 18  1  0  0  0
 17 46  1  0  0  0
 18 19  1  0  0  0
 18 36  2  0  0  0
 19 20  1  0  0  0
 19 34  2  3  0  0
 20 25  1  0  0  0
 20 21  2  0  0  0
 21 22  1  0  0  0
 21 47  1  0  0  0
 22 23  2  0  0  0
 22 48  1  0  0  0
 23 24  1  0  0  0
 23 26  1  0  0  0
 24 25  2  0  0  0
 24 49  1  0  0  0
 25 50  1  0  0  0
 26 27  1  0  0  0
 27 28  1  0  0  0
 27 51  1  0  0  0
 27 52  1  0  0  0
 28 29  1  0  0  0
 28 53  1  0  0  0
 28 54  1  0  0  0
 29 30  1  0  0  0
 29 33  1  0  0  0
 29 55  1  0  0  0
 30 31  1  0  0  0
 30 32  2  0  0  0
 33 56  1  0  0  0
 33 57  1  0  0  0
 33 59  1  0  0  0
 34 35  1  0  0  0
 35 58  1  0  0  0
M  CHG  3  15  -1  31  -1  33   1
M  END
> <s_m_entry_id>
27268

> <s_m_entry_name>
data_maestro.29

> <s_m_Source_Path>
C:\Users\olshana1\Git\GramNeg-Accumulation\Gram Negative Permeation - OmpF

> <s_m_Source_File>
data_maestro.csv

> <i_m_Source_File_Index>
29

> <s_m_job_name>
glide-dock_Nicaido_neutral

> <s_i_glide_gridfile>
3POX-grid

> <i_i_glide_lignum>
37

> <i_i_glide_rotatable_bonds>
14

> <r_i_docking_score>
-5.92282884953386

> <r_i_glide_ligand_efficiency>
-0.164523023598163

> <r_i_glide_ligand_efficiency_sa>
-0.5432430540404

> <r_i_glide_ligand_efficiency_ln>
-1.29220123862494

> <r_i_glide_gscore>
-5.92282884953386

> <r_i_glide_lipo>
-0.189026307671181

> <r_i_glide_hbond>
-1.26261685668442

> <r_i_glide_metal>
0

> <r_i_glide_rewards>
-0.00277747520621391

> <r_i_glide_evdw>
-23.2387580871582

> <r_i_glide_ecoul>
-24.8282108306885

> <r_i_glide_erotb>
0.900147327125679

> <r_i_glide_esite>
-0.482386008136542

> <r_i_glide_emodel>
-77.2532455338826

> <r_i_glide_energy>
-48.0669689178467

> <r_i_glide_einternal>
12.8156127929688

> <i_i_glide_confnum>
288

> <i_i_glide_posenum>
271

> <r_i_glide_eff_state_penalty>
0

> <r_glide_res:A132_vdw>
-0.6332923149332

> <r_glide_res:A132_coul>
-15.3737851640144

> <r_glide_res:A132_hbond>
0

> <r_glide_res:A132_dist>
4.42744736707976

> <r_glide_res:A132_Eint>
-16.0070774789476

> <r_glide_res:A117_vdw>
-1.86033980028941

> <r_glide_res:A117_coul>
-13.5900376494142

> <r_glide_res:A117_hbond>
0

> <r_glide_res:A117_dist>
2.03882864059856

> <r_glide_res:A117_Eint>
-15.4503774497036

> <r_glide_res:A113_vdw>
-1.59432642098487

> <r_glide_res:A113_coul>
11.6360407959031

> <r_glide_res:A113_hbond>
0

> <r_glide_res:A113_dist>
3.05782108535947

> <r_glide_res:A113_Eint>
10.0417143749182

> <r_glide_res:A82_vdw>
-1.52947657706945

> <r_glide_res:A82_coul>
-23.8542992045358

> <r_glide_res:A82_hbond>
0

> <r_glide_res:A82_dist>
2.22435073655051

> <r_glide_res:A82_Eint>
-25.3837757816052

> <r_glide_res:A42_vdw>
-0.517962600692028

> <r_glide_res:A42_coul>
-35.2068975737497

> <r_glide_res:A42_hbond>
-0.2

> <r_glide_res:A42_dist>
1.88463553801504

> <r_glide_res:A42_Eint>
-35.9248601744418

> <r_glide_res:A16_vdw>
-0.538013245437507

> <r_glide_res:A16_coul>
-35.1060468877727

> <r_glide_res:A16_hbond>
-0.2

> <r_glide_res:A16_dist>
1.85208338928174

> <r_glide_res:A16_Eint>
-35.8440601332102

> <s_m_source_file>
ligprep_Nicaido_neutral.maegz

> <i_m_source_file_index>
29

> <i_lp_mmshare_version>
58128

> <i_f3d_flags>
0

> <s_lp_Force_Field>
S-OPLS

> <r_lp_Energy>
65.715273

> <b_lp_Chiralities_Consistent>
1

> <s_lp_Variant>
Nocardicin B-2

> <s_epik_input>
W2NIXTFbY0hdYyhbT0hdKVtjSF1bY0hdYzFbQ0BIXShDKD1PKVtPSF0pTjJbQ0gyXVtDQEBIXShDMj1PKVtOSF1DKD1PKS9DKD1OL1tPSF0pYzNbY0hdW2NIXWMoW2NIXVtjSF0zKU9bQ0gyXVtDSDJdW0NAQEhdKFtOSDJdKUMoPU8pW09IXQ==

> <s_epik_cmdline>
J2VwaWtfcHl0aG9uJywgJy1waHQnLCAnMC4wJywgJy1waCcsICc3LjQnLCAnLW50JywgJy1tYScsICc1MDAnLCAnLWltYWUnLCAnPGluZmlsZS5tYWU+JywgJy1vbWFlJywgJzxvdXRmaWxlLm1hZT4n

> <r_lp_tautomer_probability>
1

> <r_epik_Ionization_Penalty>
  0.0116

> <r_epik_Ionization_Penalty_Charging>
  0.0086

> <r_epik_Ionization_Penalty_Neutral>
  0.0030

> <r_epik_State_Penalty>
  0.0000

> <r_epik_Charging_Adjusted_Penalty>
0.0085560600321308

> <i_epik_Tot_Q>
-1

> <i_epik_Tot_abs_Q>
3

> <s_epik_Chemistry_Notes>
This compound has an imine and may undergo hydrolysis.

> <s_m_subgroup_title>
glide-dock_Nicaido_neutral_pv1

> <s_m_subgroupid>
glide-dock_Nicaido_neutral_pv1

> <b_m_subgroup_collapsed>
0

$$$$
Cyclacillin
                    3D
 Schrodinger Suite 2022-2.
 46 48  0  0  1  0            999 V2000
  -21.5423  -22.7610  -24.7457 C   0  0  0  0  0  0
  -22.9956  -22.4562  -25.1599 C   0  0  0  0  0  0
  -24.0690  -23.4278  -24.5509 C   0  0  2  0  0  0
  -24.6116  -22.7144  -23.4270 N   0  0  0  0  0  0
  -24.8175  -21.2836  -23.4370 C   0  0  2  0  0  0
  -23.4086  -20.7945  -24.4819 S   0  0  0  0  0  0
  -24.8405  -21.3371  -21.9049 C   0  0  2  0  0  0
  -24.7749  -22.8670  -22.0754 C   0  0  0  0  0  0
  -24.8273  -23.8493  -21.3621 O   0  0  0  0  0  0
  -26.1340  -20.9301  -21.3643 N   0  0  0  0  0  0
  -26.3758  -20.8650  -20.0477 C   0  0  0  0  0  0
  -27.8490  -20.9276  -19.5774 C   0  0  0  0  0  0
  -28.7460  -21.8248  -20.4810 C   0  0  0  0  0  0
  -28.4283  -23.3307  -20.3658 C   0  0  0  0  0  0
  -28.5009  -23.8043  -18.9038 C   0  0  0  0  0  0
  -27.5767  -22.9655  -18.0150 C   0  0  0  0  0  0
  -27.9263  -21.4720  -18.1273 C   0  0  0  0  0  0
  -28.3690  -19.5495  -19.6131 N   0  3  0  0  0  0
  -25.4574  -20.8050  -19.2293 O   0  0  0  0  0  0
  -23.6996  -24.8977  -24.2818 C   0  0  0  0  0  0
  -24.3687  -25.7776  -24.8738 O   0  5  0  0  0  0
  -22.7692  -25.1501  -23.4864 O   0  0  0  0  0  0
  -23.0986  -22.4264  -26.6970 C   0  0  0  0  0  0
  -21.1911  -23.7081  -25.1550 H   0  0  0  0  0  0
  -21.4399  -22.8002  -23.6604 H   0  0  0  0  0  0
  -20.8623  -21.9881  -25.1056 H   0  0  0  0  0  0
  -24.9202  -23.4584  -25.2129 H   0  0  0  0  0  0
  -25.7653  -20.9942  -23.8961 H   0  0  0  0  0  0
  -23.9696  -20.8695  -21.4432 H   0  0  0  0  0  0
  -26.9140  -20.9210  -22.0029 H   0  0  0  0  0  0
  -29.7908  -21.6755  -20.1979 H   0  0  0  0  0  0
  -28.6928  -21.5165  -21.5255 H   0  0  0  0  0  0
  -29.1378  -23.8983  -20.9695 H   0  0  0  0  0  0
  -27.4390  -23.5425  -20.7693 H   0  0  0  0  0  0
  -29.5302  -23.7196  -18.5449 H   0  0  0  0  0  0
  -28.2320  -24.8559  -18.8121 H   0  0  0  0  0  0
  -27.6740  -23.2817  -16.9761 H   0  0  0  0  0  0
  -26.5354  -23.1415  -18.2844 H   0  0  0  0  0  0
  -27.2763  -20.8930  -17.4722 H   0  0  0  0  0  0
  -28.9300  -21.3306  -17.7338 H   0  0  0  0  0  0
  -29.3513  -19.5646  -19.3051 H   0  0  0  0  0  0
  -27.8620  -18.9757  -18.9450 H   0  0  0  0  0  0
  -22.9083  -23.4093  -27.1307 H   0  0  0  0  0  0
  -24.0845  -22.0987  -27.0274 H   0  0  0  0  0  0
  -22.3721  -21.7358  -27.1282 H   0  0  0  0  0  0
  -28.2991  -19.1405  -20.5293 H   0  0  0  0  0  0
  1  2  1  0  0  0
  1 24  1  0  0  0
  1 25  1  0  0  0
  1 26  1  0  0  0
  2  6  1  0  0  0
  2  3  1  0  0  0
  2 23  1  0  0  0
  3  4  1  0  0  0
  3 20  1  0  0  0
  3 27  1  0  0  0
  4  8  1  0  0  0
  4  5  1  0  0  0
  5  6  1  0  0  0
  5  7  1  0  0  0
  5 28  1  0  0  0
  7  8  1  0  0  0
  7 10  1  0  0  0
  7 29  1  0  0  0
  8  9  2  0  0  0
 10 11  1  0  0  0
 10 30  1  0  0  0
 11 12  1  0  0  0
 11 19  2  0  0  0
 12 17  1  0  0  0
 12 13  1  0  0  0
 12 18  1  0  0  0
 13 14  1  0  0  0
 13 31  1  0  0  0
 13 32  1  0  0  0
 14 15  1  0  0  0
 14 33  1  0  0  0
 14 34  1  0  0  0
 15 16  1  0  0  0
 15 35  1  0  0  0
 15 36  1  0  0  0
 16 17  1  0  0  0
 16 37  1  0  0  0
 16 38  1  0  0  0
 17 39  1  0  0  0
 17 40  1  0  0  0
 18 41  1  0  0  0
 18 42  1  0  0  0
 18 46  1  0  0  0
 20 21  1  0  0  0
 20 22  2  0  0  0
 23 43  1  0  0  0
 23 44  1  0  0  0
 23 45  1  0  0  0
M  CHG  2  18   1  21  -1
M  END
> <s_m_entry_id>
27269

> <s_m_entry_name>
data_maestro.19

> <s_m_Source_Path>
C:\Users\olshana1\Git\GramNeg-Accumulation\Gram Negative Permeation - OmpF

> <s_m_Source_File>
data_maestro.csv

> <i_m_Source_File_Index>
19

> <s_m_job_name>
glide-dock_Nicaido_neutral

> <s_i_glide_gridfile>
3POX-grid

> <i_i_glide_lignum>
24

> <i_i_glide_rotatable_bonds>
4

> <r_i_docking_score>
-5.91692323309683

> <r_i_glide_ligand_efficiency>
-0.257257531873775

> <r_i_glide_ligand_efficiency_sa>
-0.731606199449292

> <r_i_glide_ligand_efficiency_ln>
-1.4307656894564

> <r_i_glide_gscore>
-6.12022323309683

> <r_i_glide_lipo>
0

> <r_i_glide_hbond>
-0.688727276793064

> <r_i_glide_metal>
0

> <r_i_glide_rewards>
-1.18312892009558

> <r_i_glide_evdw>
-21.4841480255127

> <r_i_glide_ecoul>
-21.9975700378418

> <r_i_glide_erotb>
0.487675558125352

> <r_i_glide_esite>
-0.362199687381638

> <r_i_glide_emodel>
-76.546727658433

> <r_i_glide_energy>
-43.4817180633545

> <r_i_glide_einternal>
3.41113924980164

> <i_i_glide_confnum>
9

> <i_i_glide_posenum>
115

> <r_i_glide_eff_state_penalty>
0.2033

> <r_glide_res:A132_vdw>
-2.21050324854943

> <r_glide_res:A132_coul>
-13.3898056630767

> <r_glide_res:A132_hbond>
-0.0931126869984617

> <r_glide_res:A132_dist>
1.88457545687999

> <r_glide_res:A132_Eint>
-15.6934215986246

> <r_glide_res:A117_vdw>
-1.50831359156628

> <r_glide_res:A117_coul>
-7.50914396268715

> <r_glide_res:A117_hbond>
0

> <r_glide_res:A117_dist>
3.30362956200688

> <r_glide_res:A117_Eint>
-9.01745755425343

> <r_glide_res:A113_vdw>
-0.860934406332758

> <r_glide_res:A113_coul>
-39.7603397874721

> <r_glide_res:A113_hbond>
-0.2

> <r_glide_res:A113_dist>
1.69612942528836

> <r_glide_res:A113_Eint>
-40.8212741938049

> <r_glide_res:A82_vdw>
-1.01782096412322

> <r_glide_res:A82_coul>
-20.334578285737

> <r_glide_res:A82_hbond>
-0.195614589794602

> <r_glide_res:A82_dist>
1.87772491289884

> <r_glide_res:A82_Eint>
-21.5480138396549

> <r_glide_res:A42_vdw>
-1.46739410720868

> <r_glide_res:A42_coul>
-7.41019642882449

> <r_glide_res:A42_hbond>
0

> <r_glide_res:A42_dist>
1.96012035773101

> <r_glide_res:A42_Eint>
-8.87759053603317

> <r_glide_res:A16_vdw>
-0.105084054483995

> <r_glide_res:A16_coul>
2.32329546938171

> <r_glide_res:A16_hbond>
0

> <r_glide_res:A16_dist>
6.02979249293881

> <r_glide_res:A16_Eint>
2.21821141489772

> <s_m_source_file>
ligprep_Nicaido_neutral.maegz

> <i_m_source_file_index>
19

> <i_lp_mmshare_version>
58128

> <i_f3d_flags>
0

> <s_lp_Force_Field>
S-OPLS

> <r_lp_Energy>
30.580191

> <b_lp_Chiralities_Consistent>
1

> <s_lp_Variant>
Cyclacillin-1

> <s_epik_input>
W09IXUMoPU8pW0NAQEhdMUMoW0NIM10pKFtDSDNdKVNbQ0BASF0oTjEyKVtDQEhdKEMyPU8pW05IXUMoPU8pQzMoW05IMl0pW0NIMl1bQ0gyXVtDSDJdW0NIMl1bQ0gyXTM=

> <s_epik_cmdline>
J2VwaWtfcHl0aG9uJywgJy1waHQnLCAnMC4wJywgJy1waCcsICc3LjQnLCAnLW50JywgJy1tYScsICc1MDAnLCAnLWltYWUnLCAnPGluZmlsZS5tYWU+JywgJy1vbWFlJywgJzxvdXRmaWxlLm1hZT4n

> <r_epik_Ionization_Penalty>
  0.2033

> <r_epik_Ionization_Penalty_Charging>
  0.2033

> <r_epik_Ionization_Penalty_Neutral>
  0.0000

> <r_epik_State_Penalty>
  0.2033

> <r_epik_Charging_Adjusted_Penalty>
0.406545099244061

> <i_epik_Tot_Q>
0

> <i_epik_Tot_abs_Q>
2

> <s_epik_Chemistry_Notes>
This compound contains an acetal/aminal-like group ( X-CH(R)-Y where X, Y are N, S, or O) that may be acid/base labile, releasing an aldehyde.

> <s_m_subgroup_title>
glide-dock_Nicaido_neutral_pv1

> <s_m_subgroupid>
glide-dock_Nicaido_neutral_pv1

> <b_m_subgroup_collapsed>
0

$$$$
Cefuroxime
                    3D
 Schrodinger Suite 2022-2.
 44 46  0  0  1  0            999 V2000
  -24.6320  -22.4289  -16.2081 C   0  0  0  0  0  0
  -25.0126  -21.8797  -17.4580 O   0  0  0  0  0  0
  -26.1161  -22.6043  -17.9356 N   0  0  0  0  0  0
  -26.6755  -22.0580  -18.9431 C   0  0  0  0  0  0
  -26.1900  -20.8490  -19.6240 C   0  0  0  0  0  0
  -26.7059  -19.6212  -19.9517 C   0  0  0  0  0  0
  -25.7052  -18.9379  -20.6960 C   0  0  0  0  0  0
  -24.6400  -19.7863  -20.7600 C   0  0  0  0  0  0
  -24.9200  -20.9529  -20.1186 O   0  0  0  0  0  0
  -27.8683  -22.7273  -19.6000 C   0  0  0  0  0  0
  -28.7660  -21.8778  -20.1200 N   0  0  0  0  0  0
  -29.9702  -22.2296  -20.8728 C   0  0  1  0  0  0
  -30.4345  -21.0278  -21.7119 C   0  0  1  0  0  0
  -30.3677  -21.8852  -22.8804 N   0  0  0  0  0  0
  -29.7138  -22.9268  -22.2296 C   0  0  0  0  0  0
  -29.1741  -23.9494  -22.6110 O   0  0  0  0  0  0
  -30.6983  -21.4079  -24.1685 C   0  0  0  0  0  0
  -30.0968  -22.2379  -25.3654 C   0  0  0  0  0  0
  -28.9644  -22.7473  -25.2109 O   0  5  0  0  0  0
  -30.7753  -22.3490  -26.4135 O   0  0  0  0  0  0
  -31.4082  -20.2493  -24.3392 C   0  0  0  0  0  0
  -32.0001  -19.4365  -23.1858 C   0  0  0  0  0  0
  -32.1116  -20.3503  -21.6309 S   0  0  0  0  0  0
  -31.6733  -19.5718  -25.6861 C   0  0  0  0  0  0
  -30.9327  -18.3692  -25.8688 O   0  0  0  0  0  0
  -29.6045  -18.4065  -26.0815 C   0  0  0  0  0  0
  -29.1687  -17.1503  -26.4169 N   0  0  0  0  0  0
  -28.8991  -19.4080  -26.0147 O   0  0  0  0  0  0
  -27.9694  -23.9534  -19.6692 O   0  0  0  0  0  0
  -23.7736  -21.8837  -15.8150 H   0  0  0  0  0  0
  -25.4368  -22.3494  -15.4759 H   0  0  0  0  0  0
  -24.3478  -23.4778  -16.3051 H   0  0  0  0  0  0
  -27.6871  -19.2517  -19.6899 H   0  0  0  0  0  0
  -25.7623  -17.9506  -21.1309 H   0  0  0  0  0  0
  -23.6576  -19.7245  -21.2051 H   0  0  0  0  0  0
  -28.6498  -20.8929  -19.9269 H   0  0  0  0  0  0
  -30.7654  -22.6848  -20.2862 H   0  0  0  0  0  0
  -29.6959  -20.2249  -21.7796 H   0  0  0  0  0  0
  -31.3871  -18.5471  -23.0317 H   0  0  0  0  0  0
  -33.0029  -19.0931  -23.4435 H   0  0  0  0  0  0
  -31.4885  -20.2123  -26.5405 H   0  0  0  0  0  0
  -32.7338  -19.3238  -25.7376 H   0  0  0  0  0  0
  -29.8274  -16.3821  -26.3636 H   0  0  0  0  0  0
  -28.1614  -16.9837  -26.4895 H   0  0  0  0  0  0
  1  2  1  0  0  0
  1 30  1  0  0  0
  1 31  1  0  0  0
  1 32  1  0  0  0
  2  3  1  0  0  0
  3  4  2  3  0  0
  4  5  1  0  0  0
  4 10  1  0  0  0
  5  9  1  0  0  0
  5  6  2  0  0  0
  6  7  1  0  0  0
  6 33  1  0  0  0
  7  8  2  0  0  0
  7 34  1  0  0  0
  8  9  1  0  0  0
  8 35  1  0  0  0
 10 11  1  0  0  0
 10 29  2  0  0  0
 11 12  1  0  0  0
 11 36  1  0  0  0
 12 15  1  0  0  0
 12 13  1  0  0  0
 12 37  1  0  0  0
 13 23  1  0  0  0
 13 14  1  0  0  0
 13 38  1  0  0  0
 14 15  1  0  0  0
 14 17  1  0  0  0
 15 16  2  0  0  0
 17 18  1  0  0  0
 17 21  2  0  0  0
 18 19  1  0  0  0
 18 20  2  0  0  0
 21 22  1  0  0  0
 21 24  1  0  0  0
 22 23  1  0  0  0
 22 39  1  0  0  0
 22 40  1  0  0  0
 24 25  1  0  0  0
 24 41  1  0  0  0
 24 42  1  0  0  0
 25 26  1  0  0  0
 26 27  1  0  0  0
 26 28  2  0  0  0
 27 43  1  0  0  0
 27 44  1  0  0  0
M  CHG  1  19  -1
M  END
> <s_m_entry_id>
27270

> <s_m_entry_name>
data_maestro.10

> <s_m_Source_Path>
C:\Users\olshana1\Git\GramNeg-Accumulation\Gram Negative Permeation - OmpF

> <s_m_Source_File>
data_maestro.csv

> <i_m_Source_File_Index>
10

> <s_m_job_name>
glide-dock_Nicaido_neutral

> <s_i_glide_gridfile>
3POX-grid

> <i_i_glide_lignum>
13

> <i_i_glide_rotatable_bonds>
9

> <r_i_docking_score>
-5.89894212459948

> <r_i_glide_ligand_efficiency>
-0.203411797399982

> <r_i_glide_ligand_efficiency_sa>
-0.624945486993507

> <r_i_glide_ligand_efficiency_ln>
-1.35070816226748

> <r_i_glide_gscore>
-5.89894212459948

> <r_i_glide_lipo>
0

> <r_i_glide_hbond>
-1.20775505587514

> <r_i_glide_metal>
0

> <r_i_glide_rewards>
-0.51790108819704

> <r_i_glide_evdw>
-26.2308101654053

> <r_i_glide_ecoul>
-18.3151168823242

> <r_i_glide_erotb>
0.663396273735242

> <r_i_glide_esite>
-0.777874213643643

> <r_i_glide_emodel>
-73.827164416511

> <r_i_glide_energy>
-44.5459270477295

> <r_i_glide_einternal>
6.10620450973511

> <i_i_glide_confnum>
10

> <i_i_glide_posenum>
310

> <r_i_glide_eff_state_penalty>
0

> <r_glide_res:A132_vdw>
-1.47598763152399

> <r_glide_res:A132_coul>
-34.60282081959

> <r_glide_res:A132_hbond>
-0.152

> <r_glide_res:A132_dist>
1.94920504679394

> <r_glide_res:A132_Eint>
-36.230808451114

> <r_glide_res:A117_vdw>
-1.17500510691614

> <r_glide_res:A117_coul>
13.898274143698

> <r_glide_res:A117_hbond>
-0.152

> <r_glide_res:A117_dist>
1.79427132911858

> <r_glide_res:A117_Eint>
12.5712690367818

> <r_glide_res:A113_vdw>
-3.75208661509068

> <r_glide_res:A113_coul>
14.8197939162254

> <r_glide_res:A113_hbond>
0

> <r_glide_res:A113_dist>
2.29747551513187

> <r_glide_res:A113_Eint>
11.0677073011347

> <r_glide_res:A82_vdw>
-1.56103833729814

> <r_glide_res:A82_coul>
-43.4982479981328

> <r_glide_res:A82_hbond>
-0.152

> <r_glide_res:A82_dist>
1.97985349299012

> <r_glide_res:A82_Eint>
-45.2112863354309

> <r_glide_res:A42_vdw>
2.80352244762126

> <r_glide_res:A42_coul>
-55.5850503661393

> <r_glide_res:A42_hbond>
-0.334780374218732

> <r_glide_res:A42_dist>
1.66473567530392

> <r_glide_res:A42_Eint>
-53.1163082927368

> <r_glide_res:A16_vdw>
-1.30400508190618

> <r_glide_res:A16_coul>
-45.9516760704662

> <r_glide_res:A16_hbond>
-0.112974681656412

> <r_glide_res:A16_dist>
2.13434438200643

> <r_glide_res:A16_Eint>
-47.3686558340288

> <s_m_source_file>
ligprep_Nicaido_neutral.maegz

> <i_m_source_file_index>
10

> <i_lp_mmshare_version>
58128

> <i_f3d_flags>
0

> <s_lp_Force_Field>
S-OPLS

> <r_lp_Energy>
41.721283

> <b_lp_Chiralities_Consistent>
1

> <s_lp_Variant>
Cefuroxime-1

> <s_epik_input>
bzFbY0hdW2NIXVtjSF1jMS9DKD1OXE9bQ0gzXSlDKD1PKVtOSF1bQ0BASF0yQyg9TylOKFtDQEhdMjMpQyhDKD1PKVtPSF0pPUMoW0NIMl1TMylbQ0gyXU9DKD1PKVtOSDJd

> <s_epik_cmdline>
J2VwaWtfcHl0aG9uJywgJy1waHQnLCAnMC4wJywgJy1waCcsICc3LjQnLCAnLW50JywgJy1tYScsICc1MDAnLCAnLWltYWUnLCAnPGluZmlsZS5tYWU+JywgJy1vbWFlJywgJzxvdXRmaWxlLm1hZT4n

> <r_lp_tautomer_probability>
1

> <r_epik_Ionization_Penalty>
  0.0000

> <r_epik_Ionization_Penalty_Charging>
  0.0000

> <r_epik_Ionization_Penalty_Neutral>
  0.0000

> <r_epik_State_Penalty>
  0.0000

> <r_epik_Charging_Adjusted_Penalty>
8.57368987839538e-06

> <i_epik_Tot_Q>
-1

> <i_epik_Tot_abs_Q>
1

> <s_epik_Chemistry_Notes>
This compound has an ester and may undergo hydrolysis at high or low pH. This compound has an imine and may undergo hydrolysis. This compound contains an acetal/aminal-like group ( X-CH(R)-Y where X, Y are N, S, or O) that may be acid/base labile, releasing an aldehyde.

> <s_m_subgroup_title>
glide-dock_Nicaido_neutral_pv1

> <s_m_subgroupid>
glide-dock_Nicaido_neutral_pv1

> <b_m_subgroup_collapsed>
0

$$$$
Cefuroxime
                    3D
 Schrodinger Suite 2022-2.
 44 46  0  0  1  0            999 V2000
  -24.4576  -24.7117  -17.7792 C   0  0  0  0  0  0
  -25.4351  -24.2037  -18.6641 O   0  0  0  0  0  0
  -25.1969  -22.8289  -18.8050 N   0  0  0  0  0  0
  -26.1060  -22.1694  -19.4164 C   0  0  0  0  0  0
  -25.8805  -20.7330  -19.5975 C   0  0  0  0  0  0
  -25.3185  -19.7609  -18.8134 C   0  0  0  0  0  0
  -25.2715  -18.5742  -19.5950 C   0  0  0  0  0  0
  -25.7949  -18.9055  -20.8101 C   0  0  0  0  0  0
  -26.1556  -20.2186  -20.8356 O   0  0  0  0  0  0
  -27.4141  -22.7441  -19.9861 C   0  0  0  0  0  0
  -28.3689  -21.8395  -20.2722 N   0  0  0  0  0  0
  -29.6571  -22.1337  -20.9136 C   0  0  1  0  0  0
  -30.1784  -20.9209  -21.7137 C   0  0  1  0  0  0
  -30.1101  -21.7439  -22.9050 N   0  0  0  0  0  0
  -29.5486  -22.8493  -22.2890 C   0  0  0  0  0  0
  -29.1690  -23.9252  -22.7105 O   0  0  0  0  0  0
  -30.4475  -21.2538  -24.1810 C   0  0  0  0  0  0
  -29.7525  -22.0002  -25.3773 C   0  0  0  0  0  0
  -28.5604  -22.3499  -25.2134 O   0  5  0  0  0  0
  -30.4222  -22.2191  -26.4134 O   0  0  0  0  0  0
  -31.2320  -20.1489  -24.3366 C   0  0  0  0  0  0
  -31.8576  -19.3817  -23.1713 C   0  0  0  0  0  0
  -31.8829  -20.3020  -21.6134 S   0  0  0  0  0  0
  -31.5742  -19.5177  -25.6854 C   0  0  0  0  0  0
  -30.8544  -18.3251  -25.9655 O   0  0  0  0  0  0
  -29.5332  -18.3474  -26.2058 C   0  0  0  0  0  0
  -29.1689  -17.1496  -26.7408 N   0  0  0  0  0  0
  -28.7687  -19.2830  -26.0134 O   0  0  0  0  0  0
  -27.5686  -23.9496  -20.1943 O   0  0  0  0  0  0
  -24.6410  -25.7709  -17.6134 H   0  0  0  0  0  0
  -23.4526  -24.5971  -18.1879 H   0  0  0  0  0  0
  -24.5040  -24.2075  -16.8134 H   0  0  0  0  0  0
  -24.9806  -19.8895  -17.7954 H   0  0  0  0  0  0
  -24.9043  -17.6013  -19.3030 H   0  0  0  0  0  0
  -25.9689  -18.3508  -21.7213 H   0  0  0  0  0  0
  -28.1961  -20.8692  -20.0440 H   0  0  0  0  0  0
  -30.4008  -22.5588  -20.2428 H   0  0  0  0  0  0
  -29.4658  -20.0946  -21.7714 H   0  0  0  0  0  0
  -31.3023  -18.4542  -23.0268 H   0  0  0  0  0  0
  -32.8847  -19.1065  -23.4106 H   0  0  0  0  0  0
  -31.4489  -20.1958  -26.5217 H   0  0  0  0  0  0
  -32.6364  -19.2733  -25.6831 H   0  0  0  0  0  0
  -29.8510  -16.4006  -26.7223 H   0  0  0  0  0  0
  -28.1667  -16.9519  -26.8133 H   0  0  0  0  0  0
  1  2  1  0  0  0
  1 30  1  0  0  0
  1 31  1  0  0  0
  1 32  1  0  0  0
  2  3  1  0  0  0
  3  4  2  3  0  0
  4  5  1  0  0  0
  4 10  1  0  0  0
  5  9  1  0  0  0
  5  6  2  0  0  0
  6  7  1  0  0  0
  6 33  1  0  0  0
  7  8  2  0  0  0
  7 34  1  0  0  0
  8  9  1  0  0  0
  8 35  1  0  0  0
 10 11  1  0  0  0
 10 29  2  0  0  0
 11 12  1  0  0  0
 11 36  1  0  0  0
 12 15  1  0  0  0
 12 13  1  0  0  0
 12 37  1  0  0  0
 13 23  1  0  0  0
 13 14  1  0  0  0
 13 38  1  0  0  0
 14 15  1  0  0  0
 14 17  1  0  0  0
 15 16  2  0  0  0
 17 18  1  0  0  0
 17 21  2  0  0  0
 18 19  1  0  0  0
 18 20  2  0  0  0
 21 22  1  0  0  0
 21 24  1  0  0  0
 22 23  1  0  0  0
 22 39  1  0  0  0
 22 40  1  0  0  0
 24 25  1  0  0  0
 24 41  1  0  0  0
 24 42  1  0  0  0
 25 26  1  0  0  0
 26 27  1  0  0  0
 26 28  2  0  0  0
 27 43  1  0  0  0
 27 44  1  0  0  0
M  CHG  1  19  -1
M  END
> <s_m_entry_id>
27271

> <s_m_entry_name>
data_maestro.10

> <s_m_Source_Path>
C:\Users\olshana1\Git\GramNeg-Accumulation\Gram Negative Permeation - OmpF

> <s_m_Source_File>
data_maestro.csv

> <i_m_Source_File_Index>
10

> <s_m_job_name>
glide-dock_Nicaido_neutral

> <s_i_glide_gridfile>
3POX-grid

> <i_i_glide_lignum>
14

> <i_i_glide_rotatable_bonds>
9

> <r_i_docking_score>
-5.89741837720812

> <r_i_glide_ligand_efficiency>
-0.203359254386487

> <r_i_glide_ligand_efficiency_sa>
-0.624784058209254

> <r_i_glide_ligand_efficiency_ln>
-1.35035926275376

> <r_i_glide_gscore>
-5.89741837720812

> <r_i_glide_lipo>
0

> <r_i_glide_hbond>
-1.38337264069306

> <r_i_glide_metal>
0

> <r_i_glide_rewards>
-0.512405545757413

> <r_i_glide_evdw>
-26.4676895141602

> <r_i_glide_ecoul>
-16.94921875

> <r_i_glide_erotb>
0.663396273735242

> <r_i_glide_esite>
-0.799269176284884

> <r_i_glide_emodel>
-71.9473632019197

> <r_i_glide_energy>
-43.4169082641602

> <r_i_glide_einternal>
4.92818593978882

> <i_i_glide_confnum>
10

> <i_i_glide_posenum>
286

> <r_i_glide_eff_state_penalty>
0

> <r_glide_res:A132_vdw>
-1.65490024886685

> <r_glide_res:A132_coul>
-38.2624120523045

> <r_glide_res:A132_hbond>
-0.153201260474117

> <r_glide_res:A132_dist>
1.89432719297932

> <r_glide_res:A132_Eint>
-40.0705135616455

> <r_glide_res:A117_vdw>
-2.34027126814828

> <r_glide_res:A117_coul>
15.4842713117007

> <r_glide_res:A117_hbond>
-0.153201260474117

> <r_glide_res:A117_dist>
1.82273457278744

> <r_glide_res:A117_Eint>
12.9907987830783

> <r_glide_res:A113_vdw>
-3.41179030830959

> <r_glide_res:A113_coul>
17.6427883254974

> <r_glide_res:A113_hbond>
0

> <r_glide_res:A113_dist>
2.32845029507091

> <r_glide_res:A113_Eint>
14.2309980171878

> <r_glide_res:A82_vdw>
-1.39962679946662

> <r_glide_res:A82_coul>
-44.5701758538684

> <r_glide_res:A82_hbond>
-0.153201260474117

> <r_glide_res:A82_dist>
1.95767230797043

> <r_glide_res:A82_Eint>
-46.1230039138091

> <r_glide_res:A42_vdw>
0.74171738919438

> <r_glide_res:A42_coul>
-56.2363126039751

> <r_glide_res:A42_hbond>
-0.501564623431902

> <r_glide_res:A42_dist>
1.97842440454903

> <r_glide_res:A42_Eint>
-55.9961598382126

> <r_glide_res:A16_vdw>
-1.12407285936696

> <r_glide_res:A16_coul>
-46.9044601773206

> <r_glide_res:A16_hbond>
-0.161810369588698

> <r_glide_res:A16_dist>
2.01191293484545

> <r_glide_res:A16_Eint>
-48.1903434062763

> <s_m_source_file>
ligprep_Nicaido_neutral.maegz

> <i_m_source_file_index>
10

> <i_lp_mmshare_version>
58128

> <i_f3d_flags>
0

> <s_lp_Force_Field>
S-OPLS

> <r_lp_Energy>
45.356438

> <b_lp_Chiralities_Consistent>
1

> <s_lp_Variant>
Cefuroxime-2

> <s_epik_input>
bzFbY0hdW2NIXVtjSF1jMS9DKD1OXE9bQ0gzXSlDKD1PKVtOSF1bQ0BASF0yQyg9TylOKFtDQEhdMjMpQyhDKD1PKVtPSF0pPUMoW0NIMl1TMylbQ0gyXU9DKD1PKVtOSDJd

> <s_epik_cmdline>
J2VwaWtfcHl0aG9uJywgJy1waHQnLCAnMC4wJywgJy1waCcsICc3LjQnLCAnLW50JywgJy1tYScsICc1MDAnLCAnLWltYWUnLCAnPGluZmlsZS5tYWU+JywgJy1vbWFlJywgJzxvdXRmaWxlLm1hZT4n

> <r_lp_tautomer_probability>
1

> <r_epik_Ionization_Penalty>
  0.0000

> <r_epik_Ionization_Penalty_Charging>
  0.0000

> <r_epik_Ionization_Penalty_Neutral>
  0.0000

> <r_epik_State_Penalty>
  0.0000

> <r_epik_Charging_Adjusted_Penalty>
8.57368987839538e-06

> <i_epik_Tot_Q>
-1

> <i_epik_Tot_abs_Q>
1

> <s_epik_Chemistry_Notes>
This compound has an ester and may undergo hydrolysis at high or low pH. This compound has an imine and may undergo hydrolysis. This compound contains an acetal/aminal-like group ( X-CH(R)-Y where X, Y are N, S, or O) that may be acid/base labile, releasing an aldehyde.

> <s_m_subgroup_title>
glide-dock_Nicaido_neutral_pv1

> <s_m_subgroupid>
glide-dock_Nicaido_neutral_pv1

> <b_m_subgroup_collapsed>
0

$$$$
Cefuroxime
                    3D
 Schrodinger Suite 2022-2.
 44 46  0  0  1  0            999 V2000
  -24.5554  -24.5197  -17.4948 C   0  0  0  0  0  0
  -25.5322  -24.0718  -18.4134 O   0  0  0  0  0  0
  -25.2762  -22.7161  -18.6630 N   0  0  0  0  0  0
  -26.1514  -22.1158  -19.3754 C   0  0  0  0  0  0
  -25.9368  -20.7042  -19.7020 C   0  0  0  0  0  0
  -26.1311  -19.9155  -20.8070 C   0  0  0  0  0  0
  -25.6013  -18.6351  -20.4943 C   0  0  0  0  0  0
  -25.1399  -18.7182  -19.2134 C   0  0  0  0  0  0
  -25.3214  -19.9738  -18.7233 O   0  0  0  0  0  0
  -27.4095  -22.7496  -19.9775 C   0  0  0  0  0  0
  -28.4174  -21.8916  -20.2238 N   0  0  0  0  0  0
  -29.6802  -22.2116  -20.9027 C   0  0  1  0  0  0
  -30.2128  -20.9930  -21.6860 C   0  0  1  0  0  0
  -30.0917  -21.7814  -22.8965 N   0  0  0  0  0  0
  -29.5253  -22.8901  -22.2925 C   0  0  0  0  0  0
  -29.1201  -23.9496  -22.7298 O   0  0  0  0  0  0
  -30.4225  -21.2742  -24.1684 C   0  0  0  0  0  0
  -29.7174  -21.9984  -25.3738 C   0  0  0  0  0  0
  -28.5252  -22.3496  -25.2134 O   0  5  0  0  0  0
  -30.3845  -22.2073  -26.4134 O   0  0  0  0  0  0
  -31.2206  -20.1774  -24.3132 C   0  0  0  0  0  0
  -31.8775  -19.4481  -23.1404 C   0  0  0  0  0  0
  -31.9327  -20.4190  -21.6134 S   0  0  0  0  0  0
  -31.5588  -19.5269  -25.6543 C   0  0  0  0  0  0
  -30.8404  -18.3291  -25.9170 O   0  0  0  0  0  0
  -29.5239  -18.3496  -26.1833 C   0  0  0  0  0  0
  -29.1689  -17.1496  -26.7198 N   0  0  0  0  0  0
  -28.7567  -19.2867  -26.0134 O   0  0  0  0  0  0
  -27.4717  -23.9496  -20.2522 O   0  0  0  0  0  0
  -24.7689  -25.5496  -17.2134 H   0  0  0  0  0  0
  -23.5550  -24.4799  -17.9280 H   0  0  0  0  0  0
  -24.5669  -23.9195  -16.5830 H   0  0  0  0  0  0
  -26.5773  -20.2241  -21.7416 H   0  0  0  0  0  0
  -25.5689  -17.7634  -21.1320 H   0  0  0  0  0  0
  -24.6716  -18.0197  -18.5350 H   0  0  0  0  0  0
  -28.3179  -20.9343  -19.9114 H   0  0  0  0  0  0
  -30.4297  -22.6683  -20.2582 H   0  0  0  0  0  0
  -29.5216  -20.1470  -21.7041 H   0  0  0  0  0  0
  -31.3330  -18.5211  -22.9557 H   0  0  0  0  0  0
  -32.9014  -19.1737  -23.3942 H   0  0  0  0  0  0
  -31.4307  -20.1939  -26.4991 H   0  0  0  0  0  0
  -32.6213  -19.2845  -25.6528 H   0  0  0  0  0  0
  -29.8499  -16.3998  -26.6848 H   0  0  0  0  0  0
  -28.1684  -16.9528  -26.8134 H   0  0  0  0  0  0
  1  2  1  0  0  0
  1 30  1  0  0  0
  1 31  1  0  0  0
  1 32  1  0  0  0
  2  3  1  0  0  0
  3  4  2  3  0  0
  4  5  1  0  0  0
  4 10  1  0  0  0
  5  9  1  0  0  0
  5  6  2  0  0  0
  6  7  1  0  0  0
  6 33  1  0  0  0
  7  8  2  0  0  0
  7 34  1  0  0  0
  8  9  1  0  0  0
  8 35  1  0  0  0
 10 11  1  0  0  0
 10 29  2  0  0  0
 11 12  1  0  0  0
 11 36  1  0  0  0
 12 15  1  0  0  0
 12 13  1  0  0  0
 12 37  1  0  0  0
 13 23  1  0  0  0
 13 14  1  0  0  0
 13 38  1  0  0  0
 14 15  1  0  0  0
 14 17  1  0  0  0
 15 16  2  0  0  0
 17 18  1  0  0  0
 17 21  2  0  0  0
 18 19  1  0  0  0
 18 20  2  0  0  0
 21 22  1  0  0  0
 21 24  1  0  0  0
 22 23  1  0  0  0
 22 39  1  0  0  0
 22 40  1  0  0  0
 24 25  1  0  0  0
 24 41  1  0  0  0
 24 42  1  0  0  0
 25 26  1  0  0  0
 26 27  1  0  0  0
 26 28  2  0  0  0
 27 43  1  0  0  0
 27 44  1  0  0  0
M  CHG  1  19  -1
M  END
> <s_m_entry_id>
27272

> <s_m_entry_name>
data_maestro.10

> <s_m_Source_Path>
C:\Users\olshana1\Git\GramNeg-Accumulation\Gram Negative Permeation - OmpF

> <s_m_Source_File>
data_maestro.csv

> <i_m_Source_File_Index>
10

> <s_m_job_name>
glide-dock_Nicaido_neutral

> <s_i_glide_gridfile>
3POX-grid

> <i_i_glide_lignum>
14

> <i_i_glide_rotatable_bonds>
9

> <r_i_docking_score>
-5.88847894241768

> <r_i_glide_ligand_efficiency>
-0.203050998014403

> <r_i_glide_ligand_efficiency_sa>
-0.623836996971739

> <r_i_glide_ligand_efficiency_ln>
-1.34831235887126

> <r_i_glide_gscore>
-5.88847894241768

> <r_i_glide_lipo>
0

> <r_i_glide_hbond>
-1.41618313266402

> <r_i_glide_metal>
0

> <r_i_glide_rewards>
-0.511583093971602

> <r_i_glide_evdw>
-26.7602405548096

> <r_i_glide_ecoul>
-16.6383857727051

> <r_i_glide_erotb>
0.663396273735242

> <r_i_glide_esite>
-0.790339095871063

> <r_i_glide_emodel>
-71.9847632977235

> <r_i_glide_energy>
-43.3986263275146

> <r_i_glide_einternal>
4.71807098388672

> <i_i_glide_confnum>
3

> <i_i_glide_posenum>
218

> <r_i_glide_eff_state_penalty>
0

> <r_glide_res:A132_vdw>
-1.62566501201524

> <r_glide_res:A132_coul>
-37.3794251968103

> <r_glide_res:A132_hbond>
-0.174563514225016

> <r_glide_res:A132_dist>
1.9220699982956

> <r_glide_res:A132_Eint>
-39.1796537230506

> <r_glide_res:A117_vdw>
-2.70407126905518

> <r_glide_res:A117_coul>
15.9524434358551

> <r_glide_res:A117_hbond>
-0.152971059518288

> <r_glide_res:A117_dist>
1.82458564353508

> <r_glide_res:A117_Eint>
13.0954011072817

> <r_glide_res:A113_vdw>
-3.58078635802697

> <r_glide_res:A113_coul>
16.5616245542403

> <r_glide_res:A113_hbond>
0

> <r_glide_res:A113_dist>
2.36072074672433

> <r_glide_res:A113_Eint>
12.9808381962133

> <r_glide_res:A82_vdw>
-1.28507814034933

> <r_glide_res:A82_coul>
-44.0325306092057

> <r_glide_res:A82_hbond>
-0.152971059518288

> <r_glide_res:A82_dist>
1.93639751224054

> <r_glide_res:A82_Eint>
-45.4705798090733

> <r_glide_res:A42_vdw>
0.914632304603899

> <r_glide_res:A42_coul>
-55.8300103031279

> <r_glide_res:A42_hbond>
-0.500865626086524

> <r_glide_res:A42_dist>
1.98704667815319

> <r_glide_res:A42_Eint>
-55.4162436246106

> <r_glide_res:A16_vdw>
-1.1102494352274

> <r_glide_res:A16_coul>
-46.5269630015745

> <r_glide_res:A16_hbond>
-0.166005755121291

> <r_glide_res:A16_dist>
2.00366793249952

> <r_glide_res:A16_Eint>
-47.8032181919232

> <s_m_source_file>
ligprep_Nicaido_neutral.maegz

> <i_m_source_file_index>
10

> <i_lp_mmshare_version>
58128

> <i_f3d_flags>
0

> <s_lp_Force_Field>
S-OPLS

> <r_lp_Energy>
45.356438

> <b_lp_Chiralities_Consistent>
1

> <s_lp_Variant>
Cefuroxime-2

> <s_epik_input>
bzFbY0hdW2NIXVtjSF1jMS9DKD1OXE9bQ0gzXSlDKD1PKVtOSF1bQ0BASF0yQyg9TylOKFtDQEhdMjMpQyhDKD1PKVtPSF0pPUMoW0NIMl1TMylbQ0gyXU9DKD1PKVtOSDJd

> <s_epik_cmdline>
J2VwaWtfcHl0aG9uJywgJy1waHQnLCAnMC4wJywgJy1waCcsICc3LjQnLCAnLW50JywgJy1tYScsICc1MDAnLCAnLWltYWUnLCAnPGluZmlsZS5tYWU+JywgJy1vbWFlJywgJzxvdXRmaWxlLm1hZT4n

> <r_lp_tautomer_probability>
1

> <r_epik_Ionization_Penalty>
  0.0000

> <r_epik_Ionization_Penalty_Charging>
  0.0000

> <r_epik_Ionization_Penalty_Neutral>
  0.0000

> <r_epik_State_Penalty>
  0.0000

> <r_epik_Charging_Adjusted_Penalty>
8.57368987839538e-06

> <i_epik_Tot_Q>
-1

> <i_epik_Tot_abs_Q>
1

> <s_epik_Chemistry_Notes>
This compound has an ester and may undergo hydrolysis at high or low pH. This compound has an imine and may undergo hydrolysis. This compound contains an acetal/aminal-like group ( X-CH(R)-Y where X, Y are N, S, or O) that may be acid/base labile, releasing an aldehyde.

> <s_m_subgroup_title>
glide-dock_Nicaido_neutral_pv1

> <s_m_subgroupid>
glide-dock_Nicaido_neutral_pv1

> <b_m_subgroup_collapsed>
0

$$$$
Imipenem
                    3D
 Schrodinger Suite 2022-2.
 37 38  0  0  1  0            999 V2000
  -34.9550  -25.4156  -22.4121 C   0  0  0  0  0  0
  -34.0740  -24.4116  -21.6544 C   0  0  2  0  0  0
  -33.3091  -23.4566  -22.5887 C   0  0  1  0  0  0
  -32.2786  -22.4408  -22.0589 C   0  0  2  0  0  0
  -32.1432  -20.9924  -22.5605 C   0  0  0  0  0  0
  -30.7885  -20.9985  -23.2307 C   0  0  0  0  0  0
  -29.9564  -19.5068  -23.7224 S   0  0  0  0  0  0
  -30.4081  -18.2707  -22.4669 C   0  0  0  0  0  0
  -29.9459  -18.6816  -21.0616 C   0  0  0  0  0  0
  -28.4815  -18.7496  -20.9604 N   0  3  0  0  0  0
  -27.7899  -19.5181  -20.1018 C   0  0  0  0  0  0
  -28.3689  -20.3499  -19.2224 N   0  0  0  0  0  0
  -30.3545  -22.2499  -23.4108 C   0  0  0  0  0  0
  -31.2725  -23.1345  -22.8546 N   0  0  0  0  0  0
  -32.1259  -24.1023  -23.3563 C   0  0  0  0  0  0
  -31.9689  -24.9969  -24.1595 O   0  0  0  0  0  0
  -29.0190  -22.7493  -24.0431 C   0  0  0  0  0  0
  -28.3454  -23.5502  -23.3556 O   0  5  0  0  0  0
  -28.7693  -22.3758  -25.2134 O   0  0  0  0  0  0
  -33.2085  -25.1494  -20.8134 O   0  0  0  0  0  0
  -35.6682  -24.9017  -23.0569 H   0  0  0  0  0  0
  -35.5251  -26.0357  -21.7197 H   0  0  0  0  0  0
  -34.3600  -26.0818  -23.0376 H   0  0  0  0  0  0
  -34.7196  -23.8235  -21.0007 H   0  0  0  0  0  0
  -33.9966  -22.9443  -23.2626 H   0  0  0  0  0  0
  -32.0475  -22.5666  -20.9985 H   0  0  0  0  0  0
  -32.9077  -20.7432  -23.2968 H   0  0  0  0  0  0
  -32.2204  -20.2803  -21.7413 H   0  0  0  0  0  0
  -29.9689  -17.3113  -22.7429 H   0  0  0  0  0  0
  -31.4881  -18.1233  -22.4804 H   0  0  0  0  0  0
  -30.3254  -17.9769  -20.3206 H   0  0  0  0  0  0
  -30.3561  -19.6572  -20.8134 H   0  0  0  0  0  0
  -26.7081  -19.4560  -20.1192 H   0  0  0  0  0  0
  -29.3868  -20.2615  -19.0413 H   0  0  0  0  0  0
  -27.8109  -20.8630  -18.5577 H   0  0  0  0  0  0
  -33.1841  -24.7496  -19.9449 H   0  0  0  0  0  0
  -27.9690  -18.0766  -21.5275 H   0  0  0  0  0  0
  1  2  1  0  0  0
  1 21  1  0  0  0
  1 22  1  0  0  0
  1 23  1  0  0  0
  2  3  1  0  0  0
  2 20  1  0  0  0
  2 24  1  0  0  0
  3 15  1  0  0  0
  3  4  1  0  0  0
  3 25  1  0  0  0
  4 14  1  0  0  0
  4  5  1  0  0  0
  4 26  1  0  0  0
  5  6  1  0  0  0
  5 27  1  0  0  0
  5 28  1  0  0  0
  6  7  1  0  0  0
  6 13  2  0  0  0
  7  8  1  0  0  0
  8  9  1  0  0  0
  8 29  1  0  0  0
  8 30  1  0  0  0
  9 10  1  0  0  0
  9 31  1  0  0  0
  9 32  1  0  0  0
 10 11  2  3  0  0
 10 37  1  0  0  0
 11 12  1  0  0  0
 11 33  1  0  0  0
 12 34  1  0  0  0
 12 35  1  0  0  0
 13 14  1  0  0  0
 13 17  1  0  0  0
 14 15  1  0  0  0
 15 16  2  0  0  0
 17 18  1  0  0  0
 17 19  2  0  0  0
 20 36  1  0  0  0
M  CHG  2  10   1  18  -1
M  END
> <s_m_entry_id>
27273

> <s_m_entry_name>
data_maestro.12

> <s_m_Source_Path>
C:\Users\olshana1\Git\GramNeg-Accumulation\Gram Negative Permeation - OmpF

> <s_m_Source_File>
data_maestro.csv

> <i_m_Source_File_Index>
12

> <s_m_job_name>
glide-dock_Nicaido_neutral

> <s_i_glide_gridfile>
3POX-grid

> <i_i_glide_lignum>
17

> <i_i_glide_rotatable_bonds>
7

> <r_i_docking_score>
-5.88437831760462

> <r_i_glide_ligand_efficiency>
-0.294218915880231

> <r_i_glide_ligand_efficiency_sa>
-0.798633007603257

> <r_i_glide_ligand_efficiency_ln>
-1.47266581311034

> <r_i_glide_gscore>
-5.88437831760462

> <r_i_glide_lipo>
0

> <r_i_glide_hbond>
-1.00372227333749

> <r_i_glide_metal>
0

> <r_i_glide_rewards>
-1.36808809090909

> <r_i_glide_evdw>
-12.7672061920166

> <r_i_glide_ecoul>
-22.9728717803955

> <r_i_glide_erotb>
1.02473259195513

> <r_i_glide_esite>
-0.453009468653009

> <r_i_glide_emodel>
-65.0197722705775

> <r_i_glide_energy>
-35.7400779724121

> <r_i_glide_einternal>
9.57619571685791

> <i_i_glide_confnum>
300

> <i_i_glide_posenum>
348

> <r_i_glide_eff_state_penalty>
0

> <r_glide_res:A132_vdw>
-0.888703176132585

> <r_glide_res:A132_coul>
-12.0887512005311

> <r_glide_res:A132_hbond>
0

> <r_glide_res:A132_dist>
3.57663040278653

> <r_glide_res:A132_Eint>
-12.9774543766637

> <r_glide_res:A117_vdw>
-1.47463699829267

> <r_glide_res:A117_coul>
-4.438850347647

> <r_glide_res:A117_hbond>
0

> <r_glide_res:A117_dist>
1.82344296959671

> <r_glide_res:A117_Eint>
-5.91348734593967

> <r_glide_res:A113_vdw>
1.56587038560932

> <r_glide_res:A113_coul>
-33.4241883694853

> <r_glide_res:A113_hbond>
-0.197655841814215

> <r_glide_res:A113_dist>
1.59531168362843

> <r_glide_res:A113_Eint>
-32.0559738256902

> <r_glide_res:A82_vdw>
-1.07954246586721

> <r_glide_res:A82_coul>
-32.0973305263402

> <r_glide_res:A82_hbond>
-0.179518056554302

> <r_glide_res:A82_dist>
2.0847911950719

> <r_glide_res:A82_Eint>
-33.3563910487617

> <r_glide_res:A42_vdw>
-0.537043252048866

> <r_glide_res:A42_coul>
-32.4380797366437

> <r_glide_res:A42_hbond>
-0.306548374968972

> <r_glide_res:A42_dist>
1.92294974205747

> <r_glide_res:A42_Eint>
-33.2816713636616

> <r_glide_res:A16_vdw>
-0.524245870357003

> <r_glide_res:A16_coul>
-15.5601990086067

> <r_glide_res:A16_hbond>
0

> <r_glide_res:A16_dist>
3.49895571535088

> <r_glide_res:A16_Eint>
-16.0844448789637

> <s_m_source_file>
ligprep_Nicaido_neutral.maegz

> <i_m_source_file_index>
12

> <i_lp_mmshare_version>
58128

> <i_f3d_flags>
0

> <s_lp_Force_Field>
S-OPLS

> <r_lp_Energy>
22.988374

> <b_lp_Chiralities_Consistent>
1

> <s_lp_Variant>
Imipenem-2

> <s_epik_input>
W0NIM11bQ0BASF0oW09IXSlbQ0BASF0xQyg9TylOKFtDQEhdMTIpQyhDKD1PKVtPSF0pPUMoW0NIMl0yKVNbQ0gyXVtDSDJdL049W0NIXS9bTkgyXQ==

> <s_epik_cmdline>
J2VwaWtfcHl0aG9uJywgJy1waHQnLCAnMC4wJywgJy1waCcsICc3LjQnLCAnLW50JywgJy1tYScsICc1MDAnLCAnLWltYWUnLCAnPGluZmlsZS5tYWU+JywgJy1vbWFlJywgJzxvdXRmaWxlLm1hZT4n

> <r_lp_tautomer_probability>
1

> <r_epik_Ionization_Penalty>
  0.0001

> <r_epik_Ionization_Penalty_Charging>
  0.0001

> <r_epik_Ionization_Penalty_Neutral>
  0.0000

> <r_epik_State_Penalty>
  0.0000

> <r_epik_Charging_Adjusted_Penalty>
9.5675940864495e-05

> <i_epik_Tot_Q>
0

> <i_epik_Tot_abs_Q>
2

> <s_epik_Chemistry_Notes>
This compound has an imine and may undergo hydrolysis.

> <s_m_subgroup_title>
glide-dock_Nicaido_neutral_pv1

> <s_m_subgroupid>
glide-dock_Nicaido_neutral_pv1

> <b_m_subgroup_collapsed>
0

$$$$
Cefmetazole
                    3D
 Schrodinger Suite 2022-2.
 46 48  0  0  1  0            999 V2000
  -33.0754  -16.5108  -25.3856 C   0  0  0  0  0  0
  -32.8002  -17.0555  -26.7013 N   0  0  0  0  0  0
  -32.5598  -18.3070  -27.1206 C   0  0  0  0  0  0
  -32.5439  -19.7332  -26.0881 S   0  0  0  0  0  0
  -30.9641  -19.4325  -25.2467 C   0  0  0  0  0  0
  -30.7188  -20.3851  -24.0783 C   0  0  0  0  0  0
  -29.7553  -21.3528  -24.0552 C   0  0  0  0  0  0
  -29.4346  -22.0588  -22.8666 N   0  0  0  0  0  0
  -30.0293  -21.7344  -21.5800 C   0  0  2  0  0  0
  -29.3532  -23.0029  -21.0201 C   0  0  1  0  0  0
  -30.0850  -24.2317  -20.9987 O   0  0  0  0  0  0
  -30.9290  -24.4150  -19.8796 C   0  0  0  0  0  0
  -28.5314  -22.9789  -22.3360 C   0  0  0  0  0  0
  -27.5522  -23.5489  -22.7733 O   0  0  0  0  0  0
  -28.6491  -22.6671  -19.7777 N   0  0  0  0  0  0
  -27.6451  -23.3264  -19.1882 C   0  0  0  0  0  0
  -27.1335  -22.7463  -17.8686 C   0  0  0  0  0  0
  -25.7611  -21.5717  -18.0664 S   0  0  0  0  0  0
  -24.5176  -22.5665  -18.9425 C   0  0  0  0  0  0
  -24.1569  -23.7855  -18.1999 C   0  0  0  0  0  0
  -23.8691  -24.7489  -17.6236 N   0  0  0  0  0  0
  -27.1409  -24.3493  -19.6547 O   0  0  0  0  0  0
  -31.8126  -21.5190  -21.7963 S   0  0  0  0  0  0
  -31.6441  -20.0968  -22.8957 C   0  0  0  0  0  0
  -28.9320  -21.7294  -25.3411 C   0  0  0  0  0  0
  -27.7075  -21.9495  -25.2130 O   0  5  0  0  0  0
  -29.5947  -21.9229  -26.3898 O   0  0  0  0  0  0
  -32.3689  -18.3344  -28.4333 N   0  0  0  0  0  0
  -32.5114  -17.0134  -28.8129 N   0  0  0  0  0  0
  -32.7678  -16.2499  -27.7906 N   0  0  0  0  0  0
  -33.6954  -17.2030  -24.8171 H   0  0  0  0  0  0
  -32.1409  -16.3493  -24.8509 H   0  0  0  0  0  0
  -33.5993  -15.5573  -25.4722 H   0  0  0  0  0  0
  -30.9578  -18.4192  -24.8463 H   0  0  0  0  0  0
  -30.1632  -19.4513  -25.9831 H   0  0  0  0  0  0
  -29.5909  -20.8120  -21.1881 H   0  0  0  0  0  0
  -31.5664  -25.2843  -20.0313 H   0  0  0  0  0  0
  -30.3650  -24.5714  -18.9598 H   0  0  0  0  0  0
  -31.5690  -23.5495  -19.7511 H   0  0  0  0  0  0
  -29.0346  -21.8741  -19.2755 H   0  0  0  0  0  0
  -26.8080  -23.5499  -17.2146 H   0  0  0  0  0  0
  -27.9483  -22.2415  -17.3471 H   0  0  0  0  0  0
  -23.6160  -21.9714  -19.0830 H   0  0  0  0  0  0
  -24.8841  -22.8468  -19.9294 H   0  0  0  0  0  0
  -31.2606  -19.2424  -22.3369 H   0  0  0  0  0  0
  -32.6430  -19.8312  -23.2402 H   0  0  0  0  0  0
  1  2  1  0  0  0
  1 31  1  0  0  0
  1 32  1  0  0  0
  1 33  1  0  0  0
  2 30  1  0  0  0
  2  3  1  0  0  0
  3  4  1  0  0  0
  3 28  2  0  0  0
  4  5  1  0  0  0
  5  6  1  0  0  0
  5 34  1  0  0  0
  5 35  1  0  0  0
  6 24  1  0  0  0
  6  7  2  0  0  0
  7  8  1  0  0  0
  7 25  1  0  0  0
  8 13  1  0  0  0
  8  9  1  0  0  0
  9 10  1  0  0  0
  9 23  1  0  0  0
  9 36  1  0  0  0
 10 11  1  0  0  0
 10 13  1  0  0  0
 10 15  1  0  0  0
 11 12  1  0  0  0
 12 37  1  0  0  0
 12 38  1  0  0  0
 12 39  1  0  0  0
 13 14  2  0  0  0
 15 16  1  0  0  0
 15 40  1  0  0  0
 16 17  1  0  0  0
 16 22  2  0  0  0
 17 18  1  0  0  0
 17 41  1  0  0  0
 17 42  1  0  0  0
 18 19  1  0  0  0
 19 20  1  0  0  0
 19 43  1  0  0  0
 19 44  1  0  0  0
 20 21  3  0  0  0
 23 24  1  0  0  0
 24 45  1  0  0  0
 24 46  1  0  0  0
 25 26  1  0  0  0
 25 27  2  0  0  0
 28 29  1  0  0  0
 29 30  2  0  0  0
M  CHG  1  26  -1
M  END
> <s_m_entry_id>
27274

> <s_m_entry_name>
data_maestro.3

> <s_m_Source_Path>
C:\Users\olshana1\Git\GramNeg-Accumulation\Gram Negative Permeation - OmpF

> <s_m_Source_File>
data_maestro.csv

> <i_m_Source_File_Index>
3

> <s_m_job_name>
glide-dock_Nicaido_neutral

> <s_i_glide_gridfile>
3POX-grid

> <i_i_glide_lignum>
3

> <i_i_glide_rotatable_bonds>
10

> <r_i_docking_score>
-5.88375005197778

> <r_i_glide_ligand_efficiency>
-0.196125001732593

> <r_i_glide_ligand_efficiency_sa>
-0.609405979922865

> <r_i_glide_ligand_efficiency_ln>
-1.33685212040086

> <r_i_glide_gscore>
-5.88375005197778

> <r_i_glide_lipo>
0

> <r_i_glide_hbond>
-0.95466263036862

> <r_i_glide_metal>
0

> <r_i_glide_rewards>
-0.200934427896646

> <r_i_glide_evdw>
-30.2941970825195

> <r_i_glide_ecoul>
-20.505838394165

> <r_i_glide_erotb>
0.638850535935238

> <r_i_glide_esite>
-0.776417916397018

> <r_i_glide_emodel>
-80.1937685960546

> <r_i_glide_energy>
-50.8000354766846

> <r_i_glide_einternal>
5.78182125091553

> <i_i_glide_confnum>
68

> <i_i_glide_posenum>
317

> <r_i_glide_eff_state_penalty>
0

> <r_glide_res:A132_vdw>
-1.3427334323757

> <r_glide_res:A132_coul>
-33.5425899365831

> <r_glide_res:A132_hbond>
-0.232596631334982

> <r_glide_res:A132_dist>
1.92840175739631

> <r_glide_res:A132_Eint>
-35.1179200002938

> <r_glide_res:A117_vdw>
-1.53552414874912

> <r_glide_res:A117_coul>
23.7186478385692

> <r_glide_res:A117_hbond>
0

> <r_glide_res:A117_dist>
3.65396421069049

> <r_glide_res:A117_Eint>
22.1831236898201

> <r_glide_res:A113_vdw>
-4.33830581575346

> <r_glide_res:A113_coul>
4.62593540177128

> <r_glide_res:A113_hbond>
-0.00231518265407802

> <r_glide_res:A113_dist>
2.25396127660113

> <r_glide_res:A113_Eint>
0.285314403363745

> <r_glide_res:A82_vdw>
-1.78141437129694

> <r_glide_res:A82_coul>
-39.6075205810543

> <r_glide_res:A82_hbond>
-0.16

> <r_glide_res:A82_dist>
1.95567497395882

> <r_glide_res:A82_Eint>
-41.5489349523513

> <r_glide_res:A42_vdw>
3.32580307958584

> <r_glide_res:A42_coul>
-56.4591898614693

> <r_glide_res:A42_hbond>
-0.349981502946119

> <r_glide_res:A42_dist>
1.65637347881434

> <r_glide_res:A42_Eint>
-53.4833682848296

> <r_glide_res:A16_vdw>
-1.71405995660395

> <r_glide_res:A16_coul>
-49.1313557150748

> <r_glide_res:A16_hbond>
-0.2

> <r_glide_res:A16_dist>
2.01497464503399

> <r_glide_res:A16_Eint>
-51.0454156716787

> <s_m_source_file>
ligprep_Nicaido_neutral.maegz

> <i_m_source_file_index>
3

> <i_lp_mmshare_version>
58128

> <i_f3d_flags>
0

> <s_lp_Force_Field>
S-OPLS

> <r_lp_Energy>
32.161431

> <b_lp_Chiralities_Consistent>
1

> <s_lp_Variant>
Cefmetazole-1

> <s_epik_input>
bjFubmMobjFbQ0gzXSlTW0NIMl1DKD1DMkMoPU8pW09IXSlbQ0gyXVNbQ0BIXShOMjMpW0NAXShDMz1PKShPW0NIM10pW05IXUMoPU8pW0NIMl1TW0NIMl1DI04=

> <s_epik_cmdline>
J2VwaWtfcHl0aG9uJywgJy1waHQnLCAnMC4wJywgJy1waCcsICc3LjQnLCAnLW50JywgJy1tYScsICc1MDAnLCAnLWltYWUnLCAnPGluZmlsZS5tYWU+JywgJy1vbWFlJywgJzxvdXRmaWxlLm1hZT4n

> <r_lp_tautomer_probability>
1

> <r_epik_Ionization_Penalty>
  0.0000

> <r_epik_Ionization_Penalty_Charging>
  0.0000

> <r_epik_Ionization_Penalty_Neutral>
  0.0000

> <r_epik_State_Penalty>
  0.0000

> <r_epik_Charging_Adjusted_Penalty>
8.27330724987756e-06

> <i_epik_Tot_Q>
-1

> <i_epik_Tot_abs_Q>
1

> <s_epik_Chemistry_Notes>
This compound contains an acetal/aminal-like group ( X-CH(R)-Y where X, Y are N, S, or O) that may be acid/base labile, releasing an aldehyde.

> <s_m_subgroup_title>
glide-dock_Nicaido_neutral_pv1

> <s_m_subgroupid>
glide-dock_Nicaido_neutral_pv1

> <b_m_subgroup_collapsed>
0

$$$$
Ceftazidime
                    3D
 Schrodinger Suite 2022-2.
 58 61  0  0  1  0            999 V2000
  -35.5203  -22.2846  -26.5050 C   0  0  0  0  0  0
  -34.0472  -22.7045  -26.6470 C   0  0  0  0  0  0
  -33.9009  -24.2134  -26.3301 C   0  0  0  0  0  0
  -33.5799  -22.3590  -28.0833 C   0  0  0  0  0  0
  -33.5683  -21.1492  -28.4135 O   0  5  0  0  0  0
  -33.1694  -23.2826  -28.8176 O   0  0  0  0  0  0
  -33.3500  -21.9167  -25.6743 O   0  0  0  0  0  0
  -31.9649  -22.1885  -25.6940 N   0  0  0  0  0  0
  -31.2918  -21.3751  -24.9850 C   0  0  0  0  0  0
  -29.7800  -21.5326  -24.9127 C   0  0  0  0  0  0
  -29.1510  -20.7293  -24.0451 N   0  0  0  0  0  0
  -27.7171  -20.7208  -23.7585 C   0  0  1  0  0  0
  -27.4423  -20.1090  -22.3723 C   0  0  2  0  0  0
  -27.1504  -21.4508  -21.8987 N   0  0  0  0  0  0
  -26.8757  -21.7380  -20.5460 C   0  0  0  0  0  0
  -26.2682  -23.1522  -20.2666 C   0  0  0  0  0  0
  -25.2030  -23.1904  -19.6168 O   0  5  0  0  0  0
  -26.9002  -24.1364  -20.7116 O   0  0  0  0  0  0
  -27.2163  -20.8876  -19.5369 C   0  0  0  0  0  0
  -26.9912  -21.1917  -18.0545 C   0  0  0  0  0  0
  -25.5926  -20.9722  -17.6128 N   0  3  0  0  0  0
  -24.9659  -21.9485  -16.9032 C   0  0  0  0  0  0
  -23.6582  -21.7590  -16.4122 C   0  0  0  0  0  0
  -23.0015  -20.5370  -16.6554 C   0  0  0  0  0  0
  -23.6744  -19.5310  -17.3761 C   0  0  0  0  0  0
  -24.9812  -19.7802  -17.8442 C   0  0  0  0  0  0
  -27.9572  -19.5657  -19.7539 C   0  0  0  0  0  0
  -28.7693  -19.4156  -21.3526 S   0  0  0  0  0  0
  -27.1602  -22.0410  -23.1547 C   0  0  0  0  0  0
  -26.8603  -23.1481  -23.5577 O   0  0  0  0  0  0
  -29.1840  -22.3494  -25.6134 O   0  0  0  0  0  0
  -31.8722  -20.2159  -24.2474 C   0  0  0  0  0  0
  -32.5637  -19.2206  -24.9006 C   0  0  0  0  0  0
  -33.0649  -17.9510  -23.8153 S   0  0  0  0  0  0
  -32.3012  -18.8338  -22.5017 C   0  0  0  0  0  0
  -32.2636  -18.3496  -21.2133 N   0  0  0  0  0  0
  -31.7681  -19.9940  -22.8707 N   0  0  0  0  0  0
  -36.1584  -22.8163  -27.2125 H   0  0  0  0  0  0
  -35.8901  -22.4947  -25.5014 H   0  0  0  0  0  0
  -35.6495  -21.2162  -26.6809 H   0  0  0  0  0  0
  -34.5322  -24.8179  -26.9815 H   0  0  0  0  0  0
  -32.8776  -24.5655  -26.4571 H   0  0  0  0  0  0
  -34.1937  -24.4238  -25.3005 H   0  0  0  0  0  0
  -29.7191  -20.1259  -23.4593 H   0  0  0  0  0  0
  -27.1090  -20.2663  -24.5405 H   0  0  0  0  0  0
  -26.5539  -19.4760  -22.3537 H   0  0  0  0  0  0
  -27.6138  -20.5528  -17.4327 H   0  0  0  0  0  0
  -27.2833  -22.2176  -17.8275 H   0  0  0  0  0  0
  -25.5225  -22.8586  -16.7342 H   0  0  0  0  0  0
  -23.1764  -22.5360  -15.8395 H   0  0  0  0  0  0
  -22.0035  -20.3643  -16.2776 H   0  0  0  0  0  0
  -23.2055  -18.5733  -17.5528 H   0  0  0  0  0  0
  -25.5540  -19.0339  -18.3692 H   0  0  0  0  0  0
  -28.7474  -19.4618  -19.0136 H   0  0  0  0  0  0
  -27.2797  -18.7248  -19.6211 H   0  0  0  0  0  0
  -32.8102  -19.1609  -25.9507 H   0  0  0  0  0  0
  -31.6630  -18.8262  -20.5469 H   0  0  0  0  0  0
  -32.2991  -17.3445  -21.1097 H   0  0  0  0  0  0
  1  2  1  0  0  0
  1 38  1  0  0  0
  1 39  1  0  0  0
  1 40  1  0  0  0
  2  3  1  0  0  0
  2  4  1  0  0  0
  2  7  1  0  0  0
  3 41  1  0  0  0
  3 42  1  0  0  0
  3 43  1  0  0  0
  4  5  1  0  0  0
  4  6  2  0  0  0
  7  8  1  0  0  0
  8  9  2  3  0  0
  9 10  1  0  0  0
  9 32  1  0  0  0
 10 11  1  0  0  0
 10 31  2  0  0  0
 11 12  1  0  0  0
 11 44  1  0  0  0
 12 29  1  0  0  0
 12 13  1  0  0  0
 12 45  1  0  0  0
 13 28  1  0  0  0
 13 14  1  0  0  0
 13 46  1  0  0  0
 14 15  1  0  0  0
 14 29  1  0  0  0
 15 16  1  0  0  0
 15 19  2  0  0  0
 16 17  1  0  0  0
 16 18  2  0  0  0
 19 20  1  0  0  0
 19 27  1  0  0  0
 20 21  1  0  0  0
 20 47  1  0  0  0
 20 48  1  0  0  0
 21 26  1  0  0  0
 21 22  2  0  0  0
 22 23  1  0  0  0
 22 49  1  0  0  0
 23 24  2  0  0  0
 23 50  1  0  0  0
 24 25  1  0  0  0
 24 51  1  0  0  0
 25 26  2  0  0  0
 25 52  1  0  0  0
 26 53  1  0  0  0
 27 28  1  0  0  0
 27 54  1  0  0  0
 27 55  1  0  0  0
 29 30  2  0  0  0
 32 37  1  0  0  0
 32 33  2  0  0  0
 33 34  1  0  0  0
 33 56  1  0  0  0
 34 35  1  0  0  0
 35 36  1  0  0  0
 35 37  2  0  0  0
 36 57  1  0  0  0
 36 58  1  0  0  0
M  CHG  3   5  -1  17  -1  21   1
M  END
> <s_m_entry_id>
27275

> <s_m_entry_name>
data_maestro.30

> <s_m_Source_Path>
C:\Users\olshana1\Git\GramNeg-Accumulation\Gram Negative Permeation - OmpF

> <s_m_Source_File>
data_maestro.csv

> <i_m_Source_File_Index>
30

> <s_m_job_name>
glide-dock_Nicaido_neutral

> <s_i_glide_gridfile>
3POX-grid

> <i_i_glide_lignum>
38

> <i_i_glide_rotatable_bonds>
10

> <r_i_docking_score>
-5.86920671196839

> <r_i_glide_ligand_efficiency>
-0.158627208431578

> <r_i_glide_ligand_efficiency_sa>
-0.528581049565081

> <r_i_glide_ligand_efficiency_ln>
-1.27289334209868

> <r_i_glide_gscore>
-5.86920671196839

> <r_i_glide_lipo>
-0.00355399063766181

> <r_i_glide_hbond>
-0.997562962578226

> <r_i_glide_metal>
0

> <r_i_glide_rewards>
-0.222824819389489

> <r_i_glide_evdw>
-31.3170413970947

> <r_i_glide_ecoul>
-20.1174488067627

> <r_i_glide_erotb>
0.556495996469625

> <r_i_glide_esite>
-0.6182915449635

> <r_i_glide_emodel>
-91.3050034271391

> <r_i_glide_energy>
-51.4344902038574

> <r_i_glide_einternal>
6.65725088119507

> <i_i_glide_confnum>
334

> <i_i_glide_posenum>
364

> <r_i_glide_eff_state_penalty>
0

> <r_glide_res:A132_vdw>
0.566982123816652

> <r_glide_res:A132_coul>
-43.9638262130973

> <r_glide_res:A132_hbond>
-0.337580319280175

> <r_glide_res:A132_dist>
1.85835490310594

> <r_glide_res:A132_Eint>
-43.7344244085609

> <r_glide_res:A117_vdw>
-2.994700810947

> <r_glide_res:A117_coul>
13.3438588573965

> <r_glide_res:A117_hbond>
0

> <r_glide_res:A117_dist>
2.82476667684579

> <r_glide_res:A117_Eint>
10.3491580464495

> <r_glide_res:A113_vdw>
-3.48780015544134

> <r_glide_res:A113_coul>
12.5890736090794

> <r_glide_res:A113_hbond>
-0.0807600009064578

> <r_glide_res:A113_dist>
2.2087304013442

> <r_glide_res:A113_Eint>
9.0205134527316

> <r_glide_res:A82_vdw>
-1.52104066707715

> <r_glide_res:A82_coul>
-42.4271497815658

> <r_glide_res:A82_hbond>
-0.108311123878288

> <r_glide_res:A82_dist>
2.1407750183523

> <r_glide_res:A82_Eint>
-44.0565015725213

> <r_glide_res:A42_vdw>
0.505676199829142

> <r_glide_res:A42_coul>
-46.0653950698447

> <r_glide_res:A42_hbond>
-0.162927935416642

> <r_glide_res:A42_dist>
1.68389647462747

> <r_glide_res:A42_Eint>
-45.7226468054322

> <r_glide_res:A16_vdw>
-1.7819684114979

> <r_glide_res:A16_coul>
-61.2317245384854

> <r_glide_res:A16_hbond>
-0.2

> <r_glide_res:A16_dist>
1.841135476613

> <r_glide_res:A16_Eint>
-63.2136929499833

> <s_m_source_file>
ligprep_Nicaido_neutral.maegz

> <i_m_source_file_index>
30

> <i_lp_mmshare_version>
58128

> <i_f3d_flags>
0

> <s_lp_Force_Field>
S-OPLS

> <r_lp_Energy>
86.633473

> <b_lp_Chiralities_Consistent>
1

> <s_lp_Variant>
Ceftazidime-1

> <s_epik_input>
W09IXUMoPU8pQyhbQ0gzXSkoW0NIM10pTy9OPUMoYzFbY0hdc2MobjEpW05IMl0pL0MoPU8pW05IXVtDQEBIXTJDKD1PKU4oW0NAQEhdMjMpQyhDKD1PKVtPSF0pPUMoW0NIMl1TMylbQ0gyXVtuK100W2NIXVtjSF1bY0hdW2NIXVtjSF00

> <s_epik_cmdline>
J2VwaWtfcHl0aG9uJywgJy1waHQnLCAnMC4wJywgJy1waCcsICc3LjQnLCAnLW50JywgJy1tYScsICc1MDAnLCAnLWltYWUnLCAnPGluZmlsZS5tYWU+JywgJy1vbWFlJywgJzxvdXRmaWxlLm1hZT4n

> <r_lp_tautomer_probability>
1

> <r_epik_Ionization_Penalty>
  0.0005

> <r_epik_Ionization_Penalty_Charging>
  0.0001

> <r_epik_Ionization_Penalty_Neutral>
  0.0005

> <r_epik_State_Penalty>
  0.0000

> <r_epik_Charging_Adjusted_Penalty>
5.84857251211915e-05

> <i_epik_Tot_Q>
-1

> <i_epik_Tot_abs_Q>
3

> <s_epik_Chemistry_Notes>
This compound has an imine and may undergo hydrolysis. This compound contains an acetal/aminal-like group ( X-CH(R)-Y where X, Y are N, S, or O) that may be acid/base labile, releasing an aldehyde.

> <s_m_subgroup_title>
glide-dock_Nicaido_neutral_pv1

> <s_m_subgroupid>
glide-dock_Nicaido_neutral_pv1

> <b_m_subgroup_collapsed>
0

$$$$
Cefoperazone
                    3D
 Schrodinger Suite 2022-2.
 70 74  0  0  1  0            999 V2000
  -37.2040  -31.3023  -21.1637 C   0  0  0  0  0  0
  -35.8408  -30.5993  -21.2137 C   0  0  0  0  0  0
  -35.8400  -29.4745  -22.1570 N   0  0  0  0  0  0
  -36.0052  -28.1459  -21.5702 C   0  0  0  0  0  0
  -36.7126  -27.2080  -22.5618 C   0  0  0  0  0  0
  -36.0134  -27.1877  -23.8669 N   0  0  0  0  0  0
  -35.5928  -28.3808  -24.3940 C   0  0  0  0  0  0
  -35.6717  -29.6534  -23.4866 C   0  0  0  0  0  0
  -35.5693  -30.7599  -24.0135 O   0  0  0  0  0  0
  -35.1697  -28.5397  -25.5439 O   0  0  0  0  0  0
  -35.8820  -25.9681  -24.4748 C   0  0  0  0  0  0
  -34.8660  -25.8340  -25.3480 N   0  0  0  0  0  0
  -34.5428  -24.6144  -26.0841 C   0  0  2  0  0  0
  -33.9786  -24.9787  -27.4271 C   0  0  0  0  0  0
  -34.3315  -24.2394  -28.5819 C   0  0  0  0  0  0
  -33.7985  -24.5471  -29.8508 C   0  0  0  0  0  0
  -32.8848  -25.6080  -29.9919 C   0  0  0  0  0  0
  -32.5112  -26.3495  -28.8612 C   0  0  0  0  0  0
  -33.0600  -26.0445  -27.6021 C   0  0  0  0  0  0
  -32.3687  -25.9281  -31.2134 O   0  0  0  0  0  0
  -33.3803  -23.8684  -25.4073 C   0  0  0  0  0  0
  -33.4167  -22.5242  -25.4873 N   0  0  0  0  0  0
  -32.3973  -21.5521  -25.0634 C   0  0  1  0  0  0
  -31.9491  -21.6665  -23.5968 C   0  0  1  0  0  0
  -30.5866  -21.7621  -24.0917 N   0  0  0  0  0  0
  -30.9489  -21.9520  -25.4170 C   0  0  0  0  0  0
  -30.3689  -22.3422  -26.4087 O   0  0  0  0  0  0
  -29.5157  -21.9604  -23.1983 C   0  0  0  0  0  0
  -28.2819  -22.7501  -23.7488 C   0  0  0  0  0  0
  -27.9692  -23.7822  -23.1108 O   0  5  0  0  0  0
  -27.7633  -22.3494  -24.8134 O   0  0  0  0  0  0
  -29.5455  -21.4835  -21.9245 C   0  0  0  0  0  0
  -30.7453  -20.7562  -21.3180 C   0  0  0  0  0  0
  -32.0267  -20.2364  -22.4909 S   0  0  0  0  0  0
  -28.3917  -21.6431  -20.9379 C   0  0  0  0  0  0
  -28.5269  -23.1425  -19.9229 S   0  0  0  0  0  0
  -26.8159  -23.3245  -19.5654 C   0  0  0  0  0  0
  -25.9451  -23.9495  -20.3467 N   0  0  0  0  0  0
  -24.7589  -23.8955  -19.6393 N   0  0  0  0  0  0
  -24.9156  -23.2669  -18.5106 N   0  0  0  0  0  0
  -26.2163  -22.8905  -18.4519 N   0  0  0  0  0  0
  -26.7179  -22.1614  -17.3147 C   0  0  0  0  0  0
  -32.4748  -24.4989  -24.8524 O   0  0  0  0  0  0
  -36.5909  -25.0025  -24.1863 O   0  0  0  0  0  0
  -37.1876  -32.1236  -20.4475 H   0  0  0  0  0  0
  -37.4740  -31.7180  -22.1349 H   0  0  0  0  0  0
  -37.9927  -30.6134  -20.8601 H   0  0  0  0  0  0
  -35.5705  -30.2510  -20.2151 H   0  0  0  0  0  0
  -35.0672  -31.3184  -21.4924 H   0  0  0  0  0  0
  -36.5829  -28.1994  -20.6465 H   0  0  0  0  0  0
  -35.0243  -27.7494  -21.3066 H   0  0  0  0  0  0
  -37.7439  -27.5313  -22.7199 H   0  0  0  0  0  0
  -36.7726  -26.2233  -22.0917 H   0  0  0  0  0  0
  -34.3195  -26.6576  -25.5627 H   0  0  0  0  0  0
  -35.4152  -23.9659  -26.1870 H   0  0  0  0  0  0
  -35.0310  -23.4198  -28.5012 H   0  0  0  0  0  0
  -34.0998  -23.9686  -30.7116 H   0  0  0  0  0  0
  -31.8160  -27.1712  -28.9543 H   0  0  0  0  0  0
  -32.7559  -26.6479  -26.7598 H   0  0  0  0  0  0
  -32.7859  -25.4596  -31.9203 H   0  0  0  0  0  0
  -34.2290  -22.1252  -25.9313 H   0  0  0  0  0  0
  -32.6501  -20.5261  -25.3305 H   0  0  0  0  0  0
  -32.2528  -22.5829  -23.0868 H   0  0  0  0  0  0
  -31.1992  -21.4097  -20.5722 H   0  0  0  0  0  0
  -30.3973  -19.8541  -20.8138 H   0  0  0  0  0  0
  -27.4372  -21.6488  -21.4650 H   0  0  0  0  0  0
  -28.3446  -20.7772  -20.2769 H   0  0  0  0  0  0
  -27.7830  -21.9556  -17.4241 H   0  0  0  0  0  0
  -26.5623  -22.7497  -16.4120 H   0  0  0  0  0  0
  -26.1843  -21.2151  -17.2161 H   0  0  0  0  0  0
  1  2  1  0  0  0
  1 45  1  0  0  0
  1 46  1  0  0  0
  1 47  1  0  0  0
  2  3  1  0  0  0
  2 48  1  0  0  0
  2 49  1  0  0  0
  3  8  1  0  0  0
  3  4  1  0  0  0
  4  5  1  0  0  0
  4 50  1  0  0  0
  4 51  1  0  0  0
  5  6  1  0  0  0
  5 52  1  0  0  0
  5 53  1  0  0  0
  6  7  1  0  0  0
  6 11  1  0  0  0
  7  8  1  0  0  0
  7 10  2  0  0  0
  8  9  2  0  0  0
 11 12  1  0  0  0
 11 44  2  0  0  0
 12 13  1  0  0  0
 12 54  1  0  0  0
 13 14  1  0  0  0
 13 21  1  0  0  0
 13 55  1  0  0  0
 14 19  1  0  0  0
 14 15  2  0  0  0
 15 16  1  0  0  0
 15 56  1  0  0  0
 16 17  2  0  0  0
 16 57  1  0  0  0
 17 18  1  0  0  0
 17 20  1  0  0  0
 18 19  2  0  0  0
 18 58  1  0  0  0
 19 59  1  0  0  0
 20 60  1  0  0  0
 21 22  1  0  0  0
 21 43  2  0  0  0
 22 23  1  0  0  0
 22 61  1  0  0  0
 23 26  1  0  0  0
 23 24  1  0  0  0
 23 62  1  0  0  0
 24 34  1  0  0  0
 24 25  1  0  0  0
 24 63  1  0  0  0
 25 26  1  0  0  0
 25 28  1  0  0  0
 26 27  2  0  0  0
 28 29  1  0  0  0
 28 32  2  0  0  0
 29 30  1  0  0  0
 29 31  2  0  0  0
 32 33  1  0  0  0
 32 35  1  0  0  0
 33 34  1  0  0  0
 33 64  1  0  0  0
 33 65  1  0  0  0
 35 36  1  0  0  0
 35 66  1  0  0  0
 35 67  1  0  0  0
 36 37  1  0  0  0
 37 41  1  0  0  0
 37 38  2  0  0  0
 38 39  1  0  0  0
 39 40  2  0  0  0
 40 41  1  0  0  0
 41 42  1  0  0  0
 42 68  1  0  0  0
 42 69  1  0  0  0
 42 70  1  0  0  0
M  CHG  1  30  -1
M  END
> <s_m_entry_id>
27276

> <s_m_entry_name>
data_maestro.8

> <s_m_Source_Path>
C:\Users\olshana1\Git\GramNeg-Accumulation\Gram Negative Permeation - OmpF

> <s_m_Source_File>
data_maestro.csv

> <i_m_Source_File_Index>
8

> <s_m_job_name>
glide-dock_Nicaido_neutral

> <s_i_glide_gridfile>
3POX-grid

> <i_i_glide_lignum>
11

> <i_i_glide_rotatable_bonds>
13

> <r_i_docking_score>
-5.86159291002494

> <r_i_glide_ligand_efficiency>
-0.133218020682385

> <r_i_glide_ligand_efficiency_sa>
-0.470306016958248

> <r_i_glide_ligand_efficiency_ln>
-1.22520078812685

> <r_i_glide_gscore>
-5.86159291002494

> <r_i_glide_lipo>
-0.350865595700987

> <r_i_glide_hbond>
-0.733837645736758

> <r_i_glide_metal>
0

> <r_i_glide_rewards>
-0.318313673949225

> <r_i_glide_evdw>
-36.6967315673828

> <r_i_glide_ecoul>
-15.7255401611328

> <r_i_glide_erotb>
0.362700252817045

> <r_i_glide_esite>
-0.627608644915952

> <r_i_glide_emodel>
-83.6478343135558

> <r_i_glide_energy>
-52.4222717285156

> <r_i_glide_einternal>
9.92911052703857

> <i_i_glide_confnum>
12

> <i_i_glide_posenum>
337

> <r_i_glide_eff_state_penalty>
0

> <r_glide_res:A132_vdw>
-1.05413515386308

> <r_glide_res:A132_coul>
-37.9861734270614

> <r_glide_res:A132_hbond>
0

> <r_glide_res:A132_dist>
1.86079633532688

> <r_glide_res:A132_Eint>
-39.0403085809245

> <r_glide_res:A117_vdw>
-0.759781376599395

> <r_glide_res:A117_coul>
25.0765532768482

> <r_glide_res:A117_hbond>
0

> <r_glide_res:A117_dist>
4.74368965610061

> <r_glide_res:A117_Eint>
24.3167719002488

> <r_glide_res:A113_vdw>
-1.5661133126301

> <r_glide_res:A113_coul>
17.9878817534408

> <r_glide_res:A113_hbond>
0

> <r_glide_res:A113_dist>
2.21191959044778

> <r_glide_res:A113_Eint>
16.4217684408107

> <r_glide_res:A82_vdw>
-0.39281055115618

> <r_glide_res:A82_coul>
-52.8384393524449

> <r_glide_res:A82_hbond>
-0.211260148111229

> <r_glide_res:A82_dist>
1.75523982743361

> <r_glide_res:A82_Eint>
-53.4425100517123

> <r_glide_res:A42_vdw>
-0.710053933943189

> <r_glide_res:A42_coul>
-57.3097124053069

> <r_glide_res:A42_hbond>
-0.315638566351493

> <r_glide_res:A42_dist>
1.75106321417365

> <r_glide_res:A42_Eint>
-58.3354049056016

> <r_glide_res:A16_vdw>
-3.28302340548895

> <r_glide_res:A16_coul>
-33.0333515653651

> <r_glide_res:A16_hbond>
-0.128473064104044

> <r_glide_res:A16_dist>
2.08047625665408

> <r_glide_res:A16_Eint>
-36.4448480349581

> <s_m_source_file>
ligprep_Nicaido_neutral.maegz

> <i_m_source_file_index>
8

> <i_lp_mmshare_version>
58128

> <i_f3d_flags>
0

> <s_lp_Force_Field>
S-OPLS

> <r_lp_Energy>
85.319288

> <b_lp_Chiralities_Consistent>
1

> <s_lp_Variant>
Cefoperazone-1

> <s_epik_input>
W0NIM11bQ0gyXU4xW0NIMl1bQ0gyXU4oQyg9TylDMT1PKUMoPU8pW05IXVtDQEhdKGMyW2NIXVtjSF1jKFtPSF0pW2NIXVtjSF0yKUMoPU8pW05IXVtDQEBIXTNDKD1PKU4oW0NASF0zNClDKEMoPU8pW09IXSk9QyhbQ0gyXVM0KVtDSDJdU2M1bm5ubjVbQ0gzXQ==

> <s_epik_cmdline>
J2VwaWtfcHl0aG9uJywgJy1waHQnLCAnMC4wJywgJy1waCcsICc3LjQnLCAnLW50JywgJy1tYScsICc1MDAnLCAnLWltYWUnLCAnPGluZmlsZS5tYWU+JywgJy1vbWFlJywgJzxvdXRmaWxlLm1hZT4n

> <r_lp_tautomer_probability>
1

> <r_epik_Ionization_Penalty>
  0.0158

> <r_epik_Ionization_Penalty_Charging>
  0.0000

> <r_epik_Ionization_Penalty_Neutral>
  0.0158

> <r_epik_State_Penalty>
  0.0000

> <r_epik_Charging_Adjusted_Penalty>
8.23416745038905e-06

> <i_epik_Tot_Q>
-1

> <i_epik_Tot_abs_Q>
1

> <s_epik_Chemistry_Notes>
This compound contains an acetal/aminal-like group ( X-CH(R)-Y where X, Y are N, S, or O) that may be acid/base labile, releasing an aldehyde.

> <s_m_subgroup_title>
glide-dock_Nicaido_neutral_pv1

> <s_m_subgroupid>
glide-dock_Nicaido_neutral_pv1

> <b_m_subgroup_collapsed>
0

$$$$
Imipenem
                    3D
 Schrodinger Suite 2022-2.
 37 38  0  0  1  0            999 V2000
  -21.8811  -19.6968  -27.2141 C   0  0  0  0  0  0
  -21.9329  -21.1501  -26.7249 C   0  0  2  0  0  0
  -22.8292  -21.3084  -25.4967 C   0  0  1  0  0  0
  -24.3631  -21.1654  -25.6676 C   0  0  2  0  0  0
  -25.3013  -20.2109  -24.9164 C   0  0  0  0  0  0
  -26.0377  -21.1235  -23.9615 C   0  0  0  0  0  0
  -27.4114  -20.4801  -23.0477 S   0  0  0  0  0  0
  -26.8515  -20.5081  -21.3217 C   0  0  0  0  0  0
  -27.3100  -19.2610  -20.5496 C   0  0  0  0  0  0
  -28.7689  -19.2013  -20.4131 N   0  3  0  0  0  0
  -29.5688  -18.3523  -21.0729 C   0  0  0  0  0  0
  -30.8805  -18.3494  -20.8134 N   0  0  0  0  0  0
  -25.4741  -22.3390  -23.9032 C   0  0  0  0  0  0
  -24.4245  -22.3341  -24.8130 N   0  0  0  0  0  0
  -23.1611  -22.7883  -25.1068 C   0  0  0  0  0  0
  -22.6298  -23.8794  -25.0605 O   0  0  0  0  0  0
  -25.7632  -23.5495  -22.9516 C   0  0  0  0  0  0
  -26.9616  -23.7683  -22.6594 O   0  5  0  0  0  0
  -24.7963  -24.2806  -22.6441 O   0  0  0  0  0  0
  -20.6155  -21.5494  -26.4132 O   0  0  0  0  0  0
  -22.8473  -19.3699  -27.5987 H   0  0  0  0  0  0
  -21.1530  -19.5757  -28.0136 H   0  0  0  0  0  0
  -21.5972  -19.0166  -26.4113 H   0  0  0  0  0  0
  -22.2891  -21.7845  -27.5392 H   0  0  0  0  0  0
  -22.4773  -20.7142  -24.6508 H   0  0  0  0  0  0
  -24.7100  -21.4186  -26.6735 H   0  0  0  0  0  0
  -24.7499  -19.4540  -24.3565 H   0  0  0  0  0  0
  -25.9912  -19.7002  -25.5891 H   0  0  0  0  0  0
  -27.2137  -21.4199  -20.8449 H   0  0  0  0  0  0
  -25.7624  -20.5556  -21.3075 H   0  0  0  0  0  0
  -26.8825  -19.2766  -19.5471 H   0  0  0  0  0  0
  -26.9441  -18.3515  -21.0237 H   0  0  0  0  0  0
  -29.1693  -17.6702  -21.8114 H   0  0  0  0  0  0
  -31.1761  -18.9534  -20.0364 H   0  0  0  0  0  0
  -31.5048  -17.6794  -21.2420 H   0  0  0  0  0  0
  -20.3607  -22.2070  -27.0506 H   0  0  0  0  0  0
  -29.2110  -19.7595  -19.6842 H   0  0  0  0  0  0
  1  2  1  0  0  0
  1 21  1  0  0  0
  1 22  1  0  0  0
  1 23  1  0  0  0
  2  3  1  0  0  0
  2 20  1  0  0  0
  2 24  1  0  0  0
  3 15  1  0  0  0
  3  4  1  0  0  0
  3 25  1  0  0  0
  4 14  1  0  0  0
  4  5  1  0  0  0
  4 26  1  0  0  0
  5  6  1  0  0  0
  5 27  1  0  0  0
  5 28  1  0  0  0
  6  7  1  0  0  0
  6 13  2  0  0  0
  7  8  1  0  0  0
  8  9  1  0  0  0
  8 29  1  0  0  0
  8 30  1  0  0  0
  9 10  1  0  0  0
  9 31  1  0  0  0
  9 32  1  0  0  0
 10 11  2  3  0  0
 10 37  1  0  0  0
 11 12  1  0  0  0
 11 33  1  0  0  0
 12 34  1  0  0  0
 12 35  1  0  0  0
 13 14  1  0  0  0
 13 17  1  0  0  0
 14 15  1  0  0  0
 15 16  2  0  0  0
 17 18  1  0  0  0
 17 19  2  0  0  0
 20 36  1  0  0  0
M  CHG  2  10   1  18  -1
M  END
> <s_m_entry_id>
27277

> <s_m_entry_name>
data_maestro.12

> <s_m_Source_Path>
C:\Users\olshana1\Git\GramNeg-Accumulation\Gram Negative Permeation - OmpF

> <s_m_Source_File>
data_maestro.csv

> <i_m_Source_File_Index>
12

> <s_m_job_name>
glide-dock_Nicaido_neutral

> <s_i_glide_gridfile>
3POX-grid

> <i_i_glide_lignum>
16

> <i_i_glide_rotatable_bonds>
7

> <r_i_docking_score>
-5.85844455625598

> <r_i_glide_ligand_efficiency>
-0.292922227812799

> <r_i_glide_ligand_efficiency_sa>
-0.795113254673307

> <r_i_glide_ligand_efficiency_ln>
-1.46617544799747

> <r_i_glide_gscore>
-5.85844455625598

> <r_i_glide_lipo>
-0.369756534493725

> <r_i_glide_hbond>
-0.56748847878421

> <r_i_glide_metal>
0

> <r_i_glide_rewards>
-1.36808809090909

> <r_i_glide_evdw>
-17.230188369751

> <r_i_glide_ecoul>
-21.5475234985352

> <r_i_glide_erotb>
1.02473259195513

> <r_i_glide_esite>
-0.484206100756263

> <r_i_glide_emodel>
-70.865421790384

> <r_i_glide_energy>
-38.7777118682861

> <r_i_glide_einternal>
6.95768594741821

> <i_i_glide_confnum>
153

> <i_i_glide_posenum>
236

> <r_i_glide_eff_state_penalty>
0

> <r_glide_res:A132_vdw>
-1.17798785016812

> <r_glide_res:A132_coul>
-22.0145209803368

> <r_glide_res:A132_hbond>
0

> <r_glide_res:A132_dist>
2.53478811377751

> <r_glide_res:A132_Eint>
-23.192508830505

> <r_glide_res:A117_vdw>
-3.094641690063

> <r_glide_res:A117_coul>
-7.58698206222607

> <r_glide_res:A117_hbond>
0

> <r_glide_res:A117_dist>
2.24325772556779

> <r_glide_res:A117_Eint>
-10.6816237522891

> <r_glide_res:A113_vdw>
2.53643011065518

> <r_glide_res:A113_coul>
-32.4099634691377

> <r_glide_res:A113_hbond>
-0.363376357722965

> <r_glide_res:A113_dist>
1.68594988959471

> <r_glide_res:A113_Eint>
-30.2369097162055

> <r_glide_res:A82_vdw>
0.769528440701037

> <r_glide_res:A82_coul>
-27.5937657920819

> <r_glide_res:A82_hbond>
-0.2

> <r_glide_res:A82_dist>
1.80411647169062

> <r_glide_res:A82_Eint>
-27.0242373513808

> <r_glide_res:A42_vdw>
-1.86087590090201

> <r_glide_res:A42_coul>
-14.0295801162295

> <r_glide_res:A42_hbond>
0

> <r_glide_res:A42_dist>
2.42170264449853

> <r_glide_res:A42_Eint>
-15.8904560171316

> <r_glide_res:A16_vdw>
-0.175238592624559

> <r_glide_res:A16_coul>
-0.760077915227053

> <r_glide_res:A16_hbond>
0

> <r_glide_res:A16_dist>
5.19992148494527

> <r_glide_res:A16_Eint>
-0.935316507851611

> <s_m_source_file>
ligprep_Nicaido_neutral.maegz

> <i_m_source_file_index>
12

> <i_lp_mmshare_version>
58128

> <i_f3d_flags>
0

> <s_lp_Force_Field>
S-OPLS

> <r_lp_Energy>
18.714001

> <b_lp_Chiralities_Consistent>
1

> <s_lp_Variant>
Imipenem-1

> <s_epik_input>
W0NIM11bQ0BASF0oW09IXSlbQ0BASF0xQyg9TylOKFtDQEhdMTIpQyhDKD1PKVtPSF0pPUMoW0NIMl0yKVNbQ0gyXVtDSDJdL049W0NIXS9bTkgyXQ==

> <s_epik_cmdline>
J2VwaWtfcHl0aG9uJywgJy1waHQnLCAnMC4wJywgJy1waCcsICc3LjQnLCAnLW50JywgJy1tYScsICc1MDAnLCAnLWltYWUnLCAnPGluZmlsZS5tYWU+JywgJy1vbWFlJywgJzxvdXRmaWxlLm1hZT4n

> <r_lp_tautomer_probability>
1

> <r_epik_Ionization_Penalty>
  0.0001

> <r_epik_Ionization_Penalty_Charging>
  0.0001

> <r_epik_Ionization_Penalty_Neutral>
  0.0000

> <r_epik_State_Penalty>
  0.0000

> <r_epik_Charging_Adjusted_Penalty>
9.5675940864495e-05

> <i_epik_Tot_Q>
0

> <i_epik_Tot_abs_Q>
2

> <s_epik_Chemistry_Notes>
This compound has an imine and may undergo hydrolysis.

> <s_m_subgroup_title>
glide-dock_Nicaido_neutral_pv1

> <s_m_subgroupid>
glide-dock_Nicaido_neutral_pv1

> <b_m_subgroup_collapsed>
0

$$$$
Ofloxacin
                    3D
 Schrodinger Suite 2022-2.
 46 49  0  0  1  0            999 V2000
  -20.3551  -21.4780  -21.6756 C   0  0  0  0  0  0
  -21.6945  -21.5735  -20.9241 C   0  0  1  0  0  0
  -22.8749  -21.3100  -21.8655 C   0  0  0  0  0  0
  -24.0627  -21.1621  -21.1060 O   0  0  0  0  0  0
  -24.2116  -22.0403  -20.0537 C   0  0  0  0  0  0
  -23.1897  -22.9070  -19.5867 C   0  0  0  0  0  0
  -21.9124  -22.8508  -20.2288 N   0  0  0  0  0  0
  -20.9510  -23.8417  -20.0239 C   0  0  0  0  0  0
  -21.0169  -24.8060  -19.0809 C   0  0  0  0  0  0
  -22.1989  -24.7949  -18.1833 C   0  0  0  0  0  0
  -23.2928  -23.8556  -18.5437 C   0  0  0  0  0  0
  -24.5434  -23.8832  -17.8928 C   0  0  0  0  0  0
  -25.6050  -23.0502  -18.2899 C   0  0  0  0  0  0
  -26.7772  -23.1431  -17.6169 F   0  0  0  0  0  0
  -25.4532  -22.1458  -19.3746 C   0  0  0  0  0  0
  -26.5231  -21.3505  -19.8276 N   0  0  0  0  0  0
  -27.8559  -21.9353  -19.9007 C   0  0  0  0  0  0
  -28.7365  -21.1019  -20.8401 C   0  0  0  0  0  0
  -28.7690  -19.6820  -20.4138 N   0  3  0  0  0  0
  -27.4160  -19.0864  -20.2562 C   0  0  0  0  0  0
  -26.5000  -19.9637  -19.3758 C   0  0  0  0  0  0
  -29.6835  -18.8714  -21.2475 C   0  0  0  0  0  0
  -22.3027  -25.5493  -17.2130 O   0  0  0  0  0  0
  -19.9505  -25.9506  -19.0189 C   0  0  0  0  0  0
  -20.3690  -27.1129  -18.8165 O   0  5  0  0  0  0
  -18.7551  -25.6454  -19.2137 O   0  0  0  0  0  0
  -20.2422  -20.5012  -22.1490 H   0  0  0  0  0  0
  -19.5124  -21.6016  -20.9968 H   0  0  0  0  0  0
  -20.2794  -22.2323  -22.4617 H   0  0  0  0  0  0
  -21.6854  -20.7908  -20.1622 H   0  0  0  0  0  0
  -22.7192  -20.3892  -22.4300 H   0  0  0  0  0  0
  -22.9914  -22.1157  -22.5916 H   0  0  0  0  0  0
  -20.1384  -23.8358  -20.7357 H   0  0  0  0  0  0
  -24.7091  -24.5655  -17.0696 H   0  0  0  0  0  0
  -27.7995  -22.9660  -20.2537 H   0  0  0  0  0  0
  -28.3154  -21.9482  -18.9093 H   0  0  0  0  0  0
  -29.7498  -21.5077  -20.8417 H   0  0  0  0  0  0
  -28.3599  -21.1664  -21.8620 H   0  0  0  0  0  0
  -27.4977  -18.0844  -19.8375 H   0  0  0  0  0  0
  -26.9615  -18.9727  -21.2418 H   0  0  0  0  0  0
  -26.8339  -19.9491  -18.3392 H   0  0  0  0  0  0
  -25.4847  -19.5658  -19.3874 H   0  0  0  0  0  0
  -29.2528  -18.6356  -22.2199 H   0  0  0  0  0  0
  -30.6227  -19.3980  -21.4052 H   0  0  0  0  0  0
  -29.9392  -17.9493  -20.7397 H   0  0  0  0  0  0
  -29.2320  -19.6941  -19.5024 H   0  0  0  0  0  0
  1  2  1  0  0  0
  1 27  1  0  0  0
  1 28  1  0  0  0
  1 29  1  0  0  0
  2  7  1  0  0  0
  2  3  1  0  0  0
  2 30  1  0  0  0
  3  4  1  0  0  0
  3 31  1  0  0  0
  3 32  1  0  0  0
  4  5  1  0  0  0
  5 15  1  0  0  0
  5  6  2  0  0  0
  6 11  1  0  0  0
  6  7  1  0  0  0
  7  8  1  0  0  0
  8  9  2  0  0  0
  8 33  1  0  0  0
  9 10  1  0  0  0
  9 24  1  0  0  0
 10 11  1  0  0  0
 10 23  2  0  0  0
 11 12  2  0  0  0
 12 13  1  0  0  0
 12 34  1  0  0  0
 13 14  1  0  0  0
 13 15  2  0  0  0
 15 16  1  0  0  0
 16 21  1  0  0  0
 16 17  1  0  0  0
 17 18  1  0  0  0
 17 35  1  0  0  0
 17 36  1  0  0  0
 18 19  1  0  0  0
 18 37  1  0  0  0
 18 38  1  0  0  0
 19 20  1  0  0  0
 19 22  1  0  0  0
 19 46  1  0  0  0
 20 21  1  0  0  0
 20 39  1  0  0  0
 20 40  1  0  0  0
 21 41  1  0  0  0
 21 42  1  0  0  0
 22 43  1  0  0  0
 22 44  1  0  0  0
 22 45  1  0  0  0
 24 25  1  0  0  0
 24 26  2  0  0  0
M  CHG  2  19   1  25  -1
M  END
> <s_m_entry_id>
27278

> <s_m_entry_name>
data_maestro.32

> <s_m_Source_Path>
C:\Users\olshana1\Git\GramNeg-Accumulation\Gram Negative Permeation - OmpF

> <s_m_Source_File>
data_maestro.csv

> <i_m_Source_File_Index>
32

> <s_m_job_name>
glide-dock_Nicaido_neutral

> <s_i_glide_gridfile>
3POX-grid

> <i_i_glide_lignum>
41

> <i_i_glide_rotatable_bonds>
2

> <r_i_docking_score>
-5.84584645071188

> <r_i_glide_ligand_efficiency>
-0.224840248104303

> <r_i_glide_ligand_efficiency_sa>
-0.666088350305342

> <r_i_glide_ligand_efficiency_ln>
-1.37287785716294

> <r_i_glide_gscore>
-5.84584645071188

> <r_i_glide_lipo>
0

> <r_i_glide_hbond>
-0.857795365992651

> <r_i_glide_metal>
0

> <r_i_glide_rewards>
-0.945221570454544

> <r_i_glide_evdw>
-16.2762622833252

> <r_i_glide_ecoul>
-20.5212135314941

> <r_i_glide_erotb>
0.146950134654495

> <r_i_glide_esite>
-0.297784505028797

> <r_i_glide_emodel>
-64.0999850079129

> <r_i_glide_energy>
-36.7974758148193

> <r_i_glide_einternal>
1.21099436283112

> <i_i_glide_confnum>
1

> <i_i_glide_posenum>
400

> <r_i_glide_eff_state_penalty>
0

> <r_glide_res:A132_vdw>
-1.3066816281123

> <r_glide_res:A132_coul>
0.920060664550786

> <r_glide_res:A132_hbond>
0

> <r_glide_res:A132_dist>
2.77679252750657

> <r_glide_res:A132_Eint>
-0.386620963561513

> <r_glide_res:A117_vdw>
-1.67601991932459

> <r_glide_res:A117_coul>
-13.6417968837898

> <r_glide_res:A117_hbond>
0

> <r_glide_res:A117_dist>
2.60254708992288

> <r_glide_res:A117_Eint>
-15.3178168031144

> <r_glide_res:A113_vdw>
-1.11480570115177

> <r_glide_res:A113_coul>
-36.5954780749566

> <r_glide_res:A113_hbond>
-0.174866731407595

> <r_glide_res:A113_dist>
1.86751469627545

> <r_glide_res:A113_Eint>
-37.885150507516

> <r_glide_res:A82_vdw>
-0.340173036519505

> <r_glide_res:A82_coul>
4.35100697534282

> <r_glide_res:A82_hbond>
0

> <r_glide_res:A82_dist>
4.14074942037335

> <r_glide_res:A82_Eint>
4.01083393882331

> <r_glide_res:A42_vdw>
-0.157743322585235

> <r_glide_res:A42_coul>
5.35020645322146

> <r_glide_res:A42_hbond>
0

> <r_glide_res:A42_dist>
4.90768455549034

> <r_glide_res:A42_Eint>
5.19246313063623

> <r_glide_res:A16_vdw>
-0.0348286473354685

> <r_glide_res:A16_coul>
8.06631830983375

> <r_glide_res:A16_hbond>
0

> <r_glide_res:A16_dist>
6.50103016850678

> <r_glide_res:A16_Eint>
8.03148966249828

> <s_m_source_file>
ligprep_Nicaido_neutral.maegz

> <i_m_source_file_index>
32

> <i_lp_mmshare_version>
58128

> <i_f3d_flags>
0

> <s_lp_Force_Field>
S-OPLS

> <r_lp_Energy>
60.370079

> <b_lp_Chiralities_Consistent>
1

> <s_lp_Variant>
Ofloxacin-1

> <s_epik_input>
TzFbQ0gyXVtDQEhdKFtDSDNdKW4oYzJjMTMpW2NIXWMoQyg9TylbT0hdKWMoPU8pYzJbY0hdYyhGKWMzTjRbQ0gyXVtDSDJdTihbQ0gzXSlbQ0gyXVtDSDJdNA==

> <s_epik_cmdline>
J2VwaWtfcHl0aG9uJywgJy1waHQnLCAnMC4wJywgJy1waCcsICc3LjQnLCAnLW50JywgJy1tYScsICc1MDAnLCAnLWltYWUnLCAnPGluZmlsZS5tYWU+JywgJy1vbWFlJywgJzxvdXRmaWxlLm1hZT4n

> <r_lp_tautomer_probability>
1

> <r_epik_Ionization_Penalty>
  0.1907

> <r_epik_Ionization_Penalty_Charging>
  0.1907

> <r_epik_Ionization_Penalty_Neutral>
  0.0000

> <r_epik_State_Penalty>
  0.0000

> <r_epik_Charging_Adjusted_Penalty>
0.190712686691679

> <i_epik_Tot_Q>
0

> <i_epik_Tot_abs_Q>
2

> <s_m_subgroup_title>
glide-dock_Nicaido_neutral_pv1

> <s_m_subgroupid>
glide-dock_Nicaido_neutral_pv1

> <b_m_subgroup_collapsed>
0

$$$$
Nocardicin B
                    3D
 Schrodinger Suite 2022-2.
 59 61  0  0  1  0            999 V2000
  -27.9229  -21.0993  -24.9825 O   0  0  0  0  0  0
  -27.7259  -20.5392  -23.9219 C   0  0  0  0  0  0
  -28.3937  -19.3950  -23.1298 C   0  0  2  0  0  0
  -27.2961  -19.6437  -22.0890 C   0  0  0  0  0  0
  -26.8090  -20.7649  -22.9085 N   0  0  0  0  0  0
  -25.9041  -21.8624  -22.5320 C   0  0  2  0  0  0
  -24.7601  -22.1278  -23.4824 C   0  0  0  0  0  0
  -24.6229  -21.5693  -24.7808 C   0  0  0  0  0  0
  -23.5578  -21.9257  -25.6349 C   0  0  0  0  0  0
  -22.5834  -22.8405  -25.1985 C   0  0  0  0  0  0
  -22.6591  -23.3588  -23.8980 C   0  0  0  0  0  0
  -23.7271  -22.9997  -23.0601 C   0  0  0  0  0  0
  -21.5653  -23.2392  -26.0128 O   0  0  0  0  0  0
  -26.6430  -23.2137  -22.3933 C   0  0  0  0  0  0
  -26.3669  -23.9491  -21.4144 O   0  5  0  0  0  0
  -27.4329  -23.5494  -23.3029 O   0  0  0  0  0  0
  -29.7457  -19.6678  -22.6090 N   0  0  0  0  0  0
  -30.2542  -20.8185  -22.1202 C   0  0  0  0  0  0
  -31.7435  -20.7524  -21.8259 C   0  0  0  0  0  0
  -32.4168  -22.0226  -22.1873 C   0  0  0  0  0  0
  -33.0236  -22.1818  -23.4507 C   0  0  0  0  0  0
  -33.5820  -23.4205  -23.8285 C   0  0  0  0  0  0
  -33.5470  -24.5279  -22.9436 C   0  0  0  0  0  0
  -32.9650  -24.3535  -21.6721 C   0  0  0  0  0  0
  -32.4067  -23.1163  -21.2961 C   0  0  0  0  0  0
  -34.0381  -25.7825  -23.2454 O   0  0  0  0  0  0
  -34.6266  -25.9894  -24.5237 C   0  0  0  0  0  0
  -35.0944  -27.4498  -24.6378 C   0  0  0  0  0  0
  -35.7632  -27.7713  -25.9989 C   0  0  2  0  0  0
  -36.6350  -29.0326  -25.9730 C   0  0  0  0  0  0
  -37.5585  -29.0955  -26.8123 O   0  5  0  0  0  0
  -36.3399  -29.9490  -25.1794 O   0  0  0  0  0  0
  -34.7690  -27.9700  -27.0643 N   0  3  0  0  0  0
  -32.4205  -19.7720  -21.3650 N   0  0  0  0  0  0
  -31.5739  -18.7497  -20.8146 O   0  0  0  0  0  0
  -29.6244  -21.8672  -21.9901 O   0  0  0  0  0  0
  -28.3256  -18.4169  -23.6132 H   0  0  0  0  0  0
  -26.5724  -18.8307  -22.0004 H   0  0  0  0  0  0
  -27.6596  -19.9385  -21.1028 H   0  0  0  0  0  0
  -25.5014  -21.6058  -21.5509 H   0  0  0  0  0  0
  -25.3376  -20.8540  -25.1497 H   0  0  0  0  0  0
  -23.4990  -21.4921  -26.6229 H   0  0  0  0  0  0
  -21.9005  -24.0324  -23.5366 H   0  0  0  0  0  0
  -23.7662  -23.4229  -22.0671 H   0  0  0  0  0  0
  -21.5243  -22.7996  -26.8546 H   0  0  0  0  0  0
  -30.3792  -18.8786  -22.5835 H   0  0  0  0  0  0
  -33.0447  -21.3530  -24.1444 H   0  0  0  0  0  0
  -34.0228  -23.4966  -24.8094 H   0  0  0  0  0  0
  -32.9334  -25.1806  -20.9784 H   0  0  0  0  0  0
  -31.9435  -23.0138  -20.3258 H   0  0  0  0  0  0
  -33.9013  -25.7723  -25.3077 H   0  0  0  0  0  0
  -35.4784  -25.3210  -24.6520 H   0  0  0  0  0  0
  -35.8021  -27.6342  -23.8277 H   0  0  0  0  0  0
  -34.2536  -28.1230  -24.4608 H   0  0  0  0  0  0
  -36.4042  -26.9352  -26.2835 H   0  0  0  0  0  0
  -35.2555  -28.2323  -27.9091 H   0  0  0  0  0  0
  -34.2474  -27.1205  -27.2163 H   0  0  0  0  0  0
  -31.2041  -19.1831  -20.0367 H   0  0  0  0  0  0
  -34.1190  -28.7101  -26.8149 H   0  0  0  0  0  0
  1  2  2  0  0  0
  2  5  1  0  0  0
  2  3  1  0  0  0
  3  4  1  0  0  0
  3 17  1  0  0  0
  3 37  1  0  0  0
  4  5  1  0  0  0
  4 38  1  0  0  0
  4 39  1  0  0  0
  5  6  1  0  0  0
  6  7  1  0  0  0
  6 14  1  0  0  0
  6 40  1  0  0  0
  7 12  1  0  0  0
  7  8  2  0  0  0
  8  9  1  0  0  0
  8 41  1  0  0  0
  9 10  2  0  0  0
  9 42  1  0  0  0
 10 11  1  0  0  0
 10 13  1  0  0  0
 11 12  2  0  0  0
 11 43  1  0  0  0
 12 44  1  0  0  0
 13 45  1  0  0  0
 14 15  1  0  0  0
 14 16  2  0  0  0
 17 18  1  0  0  0
 17 46  1  0  0  0
 18 19  1  0  0  0
 18 36  2  0  0  0
 19 20  1  0  0  0
 19 34  2  3  0  0
 20 25  1  0  0  0
 20 21  2  0  0  0
 21 22  1  0  0  0
 21 47  1  0  0  0
 22 23  2  0  0  0
 22 48  1  0  0  0
 23 24  1  0  0  0
 23 26  1  0  0  0
 24 25  2  0  0  0
 24 49  1  0  0  0
 25 50  1  0  0  0
 26 27  1  0  0  0
 27 28  1  0  0  0
 27 51  1  0  0  0
 27 52  1  0  0  0
 28 29  1  0  0  0
 28 53  1  0  0  0
 28 54  1  0  0  0
 29 30  1  0  0  0
 29 33  1  0  0  0
 29 55  1  0  0  0
 30 31  1  0  0  0
 30 32  2  0  0  0
 33 56  1  0  0  0
 33 57  1  0  0  0
 33 59  1  0  0  0
 34 35  1  0  0  0
 35 58  1  0  0  0
M  CHG  3  15  -1  31  -1  33   1
M  END
> <s_m_entry_id>
27279

> <s_m_entry_name>
data_maestro.29

> <s_m_Source_Path>
C:\Users\olshana1\Git\GramNeg-Accumulation\Gram Negative Permeation - OmpF

> <s_m_Source_File>
data_maestro.csv

> <i_m_Source_File_Index>
29

> <s_m_job_name>
glide-dock_Nicaido_neutral

> <s_i_glide_gridfile>
3POX-grid

> <i_i_glide_lignum>
37

> <i_i_glide_rotatable_bonds>
14

> <r_i_docking_score>
-5.82064285667198

> <r_i_glide_ligand_efficiency>
-0.161684523796444

> <r_i_glide_ligand_efficiency_sa>
-0.533870534210318

> <r_i_glide_ligand_efficiency_ln>
-1.26990701572896

> <r_i_glide_gscore>
-5.82064285667198

> <r_i_glide_lipo>
0

> <r_i_glide_hbond>
-1.23456989041199

> <r_i_glide_metal>
0

> <r_i_glide_rewards>
-0.00373658466178676

> <r_i_glide_evdw>
-23.6983451843262

> <r_i_glide_ecoul>
-23.6887645721436

> <r_i_glide_erotb>
0.900147327125679

> <r_i_glide_esite>
-0.744251763686035

> <r_i_glide_emodel>
-72.9601846091938

> <r_i_glide_energy>
-47.3871097564697

> <r_i_glide_einternal>
18.8191986083984

> <i_i_glide_confnum>
332

> <i_i_glide_posenum>
265

> <r_i_glide_eff_state_penalty>
0

> <r_glide_res:A132_vdw>
-0.602434028813646

> <r_glide_res:A132_coul>
-45.9218963783968

> <r_glide_res:A132_hbond>
-0.195850121922987

> <r_glide_res:A132_dist>
1.88994933358589

> <r_glide_res:A132_Eint>
-46.7201805291334

> <r_glide_res:A117_vdw>
-1.1521859125575

> <r_glide_res:A117_coul>
14.9638659605937

> <r_glide_res:A117_hbond>
0

> <r_glide_res:A117_dist>
2.23833181126697

> <r_glide_res:A117_Eint>
13.8116800480362

> <r_glide_res:A113_vdw>
-2.09298274052373

> <r_glide_res:A113_coul>
12.0643666287021

> <r_glide_res:A113_hbond>
-0.150915928793394

> <r_glide_res:A113_dist>
1.57728982198349

> <r_glide_res:A113_Eint>
9.82046795938496

> <r_glide_res:A82_vdw>
0.334056622315931

> <r_glide_res:A82_coul>
-46.0073173562941

> <r_glide_res:A82_hbond>
-0.196408789729696

> <r_glide_res:A82_dist>
1.76277593189728

> <r_glide_res:A82_Eint>
-45.8696695237078

> <r_glide_res:A42_vdw>
-2.4533892376345

> <r_glide_res:A42_coul>
-33.4257355022255

> <r_glide_res:A42_hbond>
-0.00642832121413321

> <r_glide_res:A42_dist>
2.48392919696467

> <r_glide_res:A42_Eint>
-35.8855530610741

> <r_glide_res:A16_vdw>
-0.443480765014854

> <r_glide_res:A16_coul>
-16.9370133607316

> <r_glide_res:A16_hbond>
0

> <r_glide_res:A16_dist>
3.9320318449843

> <r_glide_res:A16_Eint>
-17.3804941257464

> <s_m_source_file>
ligprep_Nicaido_neutral.maegz

> <i_m_source_file_index>
29

> <i_lp_mmshare_version>
58128

> <i_f3d_flags>
0

> <s_lp_Force_Field>
S-OPLS

> <r_lp_Energy>
65.715273

> <b_lp_Chiralities_Consistent>
1

> <s_lp_Variant>
Nocardicin B-2

> <s_epik_input>
W2NIXTFbY0hdYyhbT0hdKVtjSF1bY0hdYzFbQ0BIXShDKD1PKVtPSF0pTjJbQ0gyXVtDQEBIXShDMj1PKVtOSF1DKD1PKS9DKD1OL1tPSF0pYzNbY0hdW2NIXWMoW2NIXVtjSF0zKU9bQ0gyXVtDSDJdW0NAQEhdKFtOSDJdKUMoPU8pW09IXQ==

> <s_epik_cmdline>
J2VwaWtfcHl0aG9uJywgJy1waHQnLCAnMC4wJywgJy1waCcsICc3LjQnLCAnLW50JywgJy1tYScsICc1MDAnLCAnLWltYWUnLCAnPGluZmlsZS5tYWU+JywgJy1vbWFlJywgJzxvdXRmaWxlLm1hZT4n

> <r_lp_tautomer_probability>
1

> <r_epik_Ionization_Penalty>
  0.0116

> <r_epik_Ionization_Penalty_Charging>
  0.0086

> <r_epik_Ionization_Penalty_Neutral>
  0.0030

> <r_epik_State_Penalty>
  0.0000

> <r_epik_Charging_Adjusted_Penalty>
0.0085560600321308

> <i_epik_Tot_Q>
-1

> <i_epik_Tot_abs_Q>
3

> <s_epik_Chemistry_Notes>
This compound has an imine and may undergo hydrolysis.

> <s_m_subgroup_title>
glide-dock_Nicaido_neutral_pv1

> <s_m_subgroupid>
glide-dock_Nicaido_neutral_pv1

> <b_m_subgroup_collapsed>
0

$$$$
SCE-796
                    3D
 Schrodinger Suite 2022-2.
 54 57  0  0  1  0            999 V2000
  -29.5610  -24.3496  -22.4136 O   0  0  0  0  0  0
  -29.4303  -23.3212  -21.7850 C   0  0  0  0  0  0
  -29.6080  -22.8824  -20.3216 C   0  0  2  0  0  0
  -29.3350  -21.4538  -20.8296 C   0  0  2  0  0  0
  -28.9526  -22.0583  -22.0980 N   0  0  0  0  0  0
  -28.2702  -21.3819  -23.1263 C   0  0  0  0  0  0
  -28.0548  -22.2262  -24.4131 C   0  0  0  0  0  0
  -28.7039  -21.9303  -25.4418 O   0  5  0  0  0  0
  -27.2201  -23.1490  -24.3115 O   0  0  0  0  0  0
  -27.7109  -20.1536  -22.9547 C   0  0  0  0  0  0
  -27.8536  -19.3705  -21.6504 C   0  0  0  0  0  0
  -27.9688  -20.4271  -20.2058 S   0  0  0  0  0  0
  -26.9176  -19.4129  -24.0371 C   0  0  0  0  0  0
  -25.4557  -19.5651  -23.8337 N   0  3  0  0  0  0
  -24.7864  -20.5353  -24.5073 C   0  0  0  0  0  0
  -23.3869  -20.6740  -24.3730 C   0  0  0  0  0  0
  -22.6779  -19.7882  -23.5306 C   0  0  0  0  0  0
  -23.4049  -18.8129  -22.8152 C   0  0  0  0  0  0
  -24.7956  -18.7232  -22.9991 C   0  0  0  0  0  0
  -21.1896  -19.9002  -23.3825 C   0  0  0  0  0  0
  -20.5358  -18.7493  -23.2172 N   0  0  0  0  0  0
  -20.6186  -20.9851  -23.4607 O   0  0  0  0  0  0
  -28.6109  -23.3317  -19.3299 N   0  0  0  0  0  0
  -27.3304  -23.7184  -19.5081 C   0  0  0  0  0  0
  -26.4788  -23.8803  -18.2357 C   0  0  2  0  0  0
  -25.3347  -22.8581  -18.0998 C   0  0  0  0  0  0
  -25.0191  -22.3692  -16.8128 C   0  0  0  0  0  0
  -23.9679  -21.4539  -16.6226 C   0  0  0  0  0  0
  -23.2262  -20.9948  -17.7262 C   0  0  0  0  0  0
  -23.5304  -21.4661  -19.0170 C   0  0  0  0  0  0
  -24.5695  -22.3989  -19.2018 C   0  0  0  0  0  0
  -25.9480  -25.3337  -18.2332 C   0  0  0  0  0  0
  -26.7716  -26.2530  -18.0149 O   0  5  0  0  0  0
  -24.7271  -25.5495  -18.4142 O   0  0  0  0  0  0
  -26.8429  -23.9496  -20.6181 O   0  0  0  0  0  0
  -30.6401  -23.0235  -20.0133 H   0  0  0  0  0  0
  -30.2498  -20.8626  -20.9307 H   0  0  0  0  0  0
  -26.9883  -18.7496  -21.4566 H   0  0  0  0  0  0
  -28.7247  -18.7161  -21.7041 H   0  0  0  0  0  0
  -27.1556  -19.7515  -25.0451 H   0  0  0  0  0  0
  -27.1496  -18.3496  -24.0176 H   0  0  0  0  0  0
  -25.3779  -21.1667  -25.1528 H   0  0  0  0  0  0
  -22.8588  -21.4365  -24.9268 H   0  0  0  0  0  0
  -22.9129  -18.1167  -22.1516 H   0  0  0  0  0  0
  -25.3759  -17.9498  -22.5269 H   0  0  0  0  0  0
  -21.0398  -17.8709  -23.2561 H   0  0  0  0  0  0
  -19.5324  -18.7599  -23.1193 H   0  0  0  0  0  0
  -28.9025  -23.1737  -18.3751 H   0  0  0  0  0  0
  -27.1391  -23.7598  -17.3765 H   0  0  0  0  0  0
  -25.5804  -22.7070  -15.9541 H   0  0  0  0  0  0
  -23.7370  -21.1020  -15.6270 H   0  0  0  0  0  0
  -22.4242  -20.2867  -17.5821 H   0  0  0  0  0  0
  -22.9638  -21.1151  -19.8666 H   0  0  0  0  0  0
  -24.7628  -22.7510  -20.2027 H   0  0  0  0  0  0
  1  2  2  0  0  0
  2  5  1  0  0  0
  2  3  1  0  0  0
  3  4  1  0  0  0
  3 23  1  0  0  0
  3 36  1  0  0  0
  4 12  1  0  0  0
  4  5  1  0  0  0
  4 37  1  0  0  0
  5  6  1  0  0  0
  6  7  1  0  0  0
  6 10  2  0  0  0
  7  8  1  0  0  0
  7  9  2  0  0  0
 10 11  1  0  0  0
 10 13  1  0  0  0
 11 12  1  0  0  0
 11 38  1  0  0  0
 11 39  1  0  0  0
 13 14  1  0  0  0
 13 40  1  0  0  0
 13 41  1  0  0  0
 14 19  1  0  0  0
 14 15  2  0  0  0
 15 16  1  0  0  0
 15 42  1  0  0  0
 16 17  2  0  0  0
 16 43  1  0  0  0
 17 18  1  0  0  0
 17 20  1  0  0  0
 18 19  2  0  0  0
 18 44  1  0  0  0
 19 45  1  0  0  0
 20 21  1  0  0  0
 20 22  2  0  0  0
 21 46  1  0  0  0
 21 47  1  0  0  0
 23 24  1  0  0  0
 23 48  1  0  0  0
 24 25  1  0  0  0
 24 35  2  0  0  0
 25 26  1  0  0  0
 25 32  1  0  0  0
 25 49  1  0  0  0
 26 31  1  0  0  0
 26 27  2  0  0  0
 27 28  1  0  0  0
 27 50  1  0  0  0
 28 29  2  0  0  0
 28 51  1  0  0  0
 29 30  1  0  0  0
 29 52  1  0  0  0
 30 31  2  0  0  0
 30 53  1  0  0  0
 31 54  1  0  0  0
 32 33  1  0  0  0
 32 34  2  0  0  0
M  CHG  3   8  -1  14   1  33  -1
M  END
> <s_m_entry_id>
27280

> <s_m_entry_name>
data_maestro.28

> <s_m_Source_Path>
C:\Users\olshana1\Git\GramNeg-Accumulation\Gram Negative Permeation - OmpF

> <s_m_Source_File>
data_maestro.csv

> <i_m_Source_File_Index>
28

> <s_m_job_name>
glide-dock_Nicaido_neutral

> <s_i_glide_gridfile>
3POX-grid

> <i_i_glide_lignum>
35

> <i_i_glide_rotatable_bonds>
9

> <r_i_docking_score>
-5.81947612042556

> <r_i_glide_ligand_efficiency>
-0.166270746297873

> <r_i_glide_ligand_efficiency_sa>
-0.543882635940323

> <r_i_glide_ligand_efficiency_ln>
-1.27750416474714

> <r_i_glide_gscore>
-5.81947612042556

> <r_i_glide_lipo>
0

> <r_i_glide_hbond>
-1.28468879471039

> <r_i_glide_metal>
0

> <r_i_glide_rewards>
-0.0226334375851024

> <r_i_glide_evdw>
-23.6142349243164

> <r_i_glide_ecoul>
-20.2081985473633

> <r_i_glide_erotb>
0.415177540389138

> <r_i_glide_esite>
-0.715389900198887

> <r_i_glide_emodel>
-77.1889669371935

> <r_i_glide_energy>
-43.8224334716797

> <r_i_glide_einternal>
11.9803113937378

> <i_i_glide_confnum>
19

> <i_i_glide_posenum>
323

> <r_i_glide_eff_state_penalty>
0

> <r_glide_res:A132_vdw>
-2.54166597174331

> <r_glide_res:A132_coul>
-56.3418466464636

> <r_glide_res:A132_hbond>
-0.246171249787348

> <r_glide_res:A132_dist>
2.00545649708089

> <r_glide_res:A132_Eint>
-59.1296838679943

> <r_glide_res:A117_vdw>
-2.53120233186011

> <r_glide_res:A117_coul>
-9.48474327252324

> <r_glide_res:A117_hbond>
0

> <r_glide_res:A117_dist>
2.16616908691177

> <r_glide_res:A117_Eint>
-12.0159456043834

> <r_glide_res:A113_vdw>
-1.58825452867809

> <r_glide_res:A113_coul>
13.0112476477796

> <r_glide_res:A113_hbond>
0

> <r_glide_res:A113_dist>
2.21373140348193

> <r_glide_res:A113_Eint>
11.4229931191015

> <r_glide_res:A82_vdw>
0.0488597937290522

> <r_glide_res:A82_coul>
-51.9098784319979

> <r_glide_res:A82_hbond>
-0.217262633391917

> <r_glide_res:A82_dist>
1.73679019744417

> <r_glide_res:A82_Eint>
-52.0782812716608

> <r_glide_res:A42_vdw>
1.42457711171522

> <r_glide_res:A42_coul>
-43.1324750432262

> <r_glide_res:A42_hbond>
-0.40357210742903

> <r_glide_res:A42_dist>
1.88317772033793

> <r_glide_res:A42_Eint>
-42.11147003894

> <r_glide_res:A16_vdw>
-0.443441914486694

> <r_glide_res:A16_coul>
-24.337897419412

> <r_glide_res:A16_hbond>
0

> <r_glide_res:A16_dist>
3.20730268326436

> <r_glide_res:A16_Eint>
-24.7813393338987

> <s_m_source_file>
ligprep_Nicaido_neutral.maegz

> <i_m_source_file_index>
28

> <i_lp_mmshare_version>
58128

> <i_f3d_flags>
0

> <s_lp_Force_Field>
S-OPLS

> <r_lp_Energy>
64.89814

> <b_lp_Chiralities_Consistent>
1

> <s_lp_Variant>
SCE-796-1

> <s_epik_input>
W2NIXTFbY0hdW2NIXVtjSF1bY0hdYzFbQ0BIXShDKD1PKVtPSF0pQyg9TylbTkhdW0NAQEhdMkMoPU8pTihbQ0BASF0yMylDKEMoPU8pW09IXSk9QyhbQ0gyXVMzKVtDSDJdW24rXTRbY0hdW2NIXWMoW2NIXVtjSF00KUMoPU8pW05IMl0=

> <s_epik_cmdline>
J2VwaWtfcHl0aG9uJywgJy1waHQnLCAnMC4wJywgJy1waCcsICc3LjQnLCAnLW50JywgJy1tYScsICc1MDAnLCAnLWltYWUnLCAnPGluZmlsZS5tYWU+JywgJy1vbWFlJywgJzxvdXRmaWxlLm1hZT4n

> <r_lp_tautomer_probability>
1

> <r_epik_Ionization_Penalty>
  0.0010

> <r_epik_Ionization_Penalty_Charging>
  0.0001

> <r_epik_Ionization_Penalty_Neutral>
  0.0010

> <r_epik_State_Penalty>
  0.0000

> <r_epik_Charging_Adjusted_Penalty>
5.79311335039239e-05

> <i_epik_Tot_Q>
-1

> <i_epik_Tot_abs_Q>
3

> <s_epik_Chemistry_Notes>
This compound contains an acetal/aminal-like group ( X-CH(R)-Y where X, Y are N, S, or O) that may be acid/base labile, releasing an aldehyde.

> <s_m_subgroup_title>
glide-dock_Nicaido_neutral_pv1

> <s_m_subgroupid>
glide-dock_Nicaido_neutral_pv1

> <b_m_subgroup_collapsed>
0

$$$$
Cefsulodin
                    3D
 Schrodinger Suite 2022-2.
 55 58  0  0  1  0            999 V2000
  -24.1562  -24.6571  -23.4695 O   0  0  0  0  0  0
  -23.8586  -23.6056  -22.9399 C   0  0  0  0  0  0
  -22.5738  -22.9167  -22.4132 C   0  0  2  0  0  0
  -22.1543  -23.3637  -21.0920 N   0  0  0  0  0  0
  -21.2282  -24.2793  -20.7809 C   0  0  0  0  0  0
  -20.8905  -24.3828  -19.2731 C   0  0  2  0  0  0
  -20.2285  -26.0354  -18.7261 S   0  0  0  0  0  0
  -20.8152  -27.0496  -19.6133 O   0  0  0  0  0  0
  -20.6595  -26.1816  -17.3258 O   0  5  0  0  0  0
  -18.7690  -25.9276  -18.8729 O   0  0  0  0  0  0
  -22.0721  -23.9696  -18.3880 C   0  0  0  0  0  0
  -21.9781  -22.8166  -17.5766 C   0  0  0  0  0  0
  -23.0722  -22.4078  -16.7903 C   0  0  0  0  0  0
  -24.2696  -23.1457  -16.8141 C   0  0  0  0  0  0
  -24.3677  -24.3007  -17.6136 C   0  0  0  0  0  0
  -23.2725  -24.7166  -18.3935 C   0  0  0  0  0  0
  -20.6451  -24.9390  -21.6408 O   0  0  0  0  0  0
  -23.4467  -21.6531  -22.2837 C   0  0  1  0  0  0
  -24.5970  -22.4956  -22.5561 N   0  0  0  0  0  0
  -25.9178  -22.0120  -22.5142 C   0  0  0  0  0  0
  -26.9698  -22.8781  -23.2781 C   0  0  0  0  0  0
  -27.3180  -23.9495  -22.7316 O   0  5  0  0  0  0
  -27.3164  -22.4629  -24.4095 O   0  0  0  0  0  0
  -26.2637  -20.8825  -21.8369 C   0  0  0  0  0  0
  -27.6931  -20.3407  -21.7627 C   0  0  0  0  0  0
  -28.2039  -19.8153  -23.0505 N   0  3  0  0  0  0
  -29.5480  -19.8247  -23.2400 C   0  0  0  0  0  0
  -30.1117  -19.3349  -24.4348 C   0  0  0  0  0  0
  -29.2618  -18.8147  -25.4325 C   0  0  0  0  0  0
  -29.8285  -18.2716  -26.7033 C   0  0  0  0  0  0
  -29.1689  -17.2378  -27.2134 N   0  0  0  0  0  0
  -30.8432  -18.7441  -27.2133 O   0  0  0  0  0  0
  -27.8685  -18.8240  -25.2122 C   0  0  0  0  0  0
  -27.3640  -19.3282  -24.0037 C   0  0  0  0  0  0
  -25.2696  -20.0033  -21.0781 C   0  0  0  0  0  0
  -23.7025  -20.8123  -20.6874 S   0  0  0  0  0  0
  -21.7641  -22.7988  -23.1342 H   0  0  0  0  0  0
  -22.5848  -22.8750  -20.3182 H   0  0  0  0  0  0
  -20.0781  -23.6825  -19.0851 H   0  0  0  0  0  0
  -21.0704  -22.2312  -17.5577 H   0  0  0  0  0  0
  -22.9973  -21.5231  -16.1747 H   0  0  0  0  0  0
  -25.1120  -22.8291  -16.2145 H   0  0  0  0  0  0
  -25.2895  -24.8640  -17.6198 H   0  0  0  0  0  0
  -23.3549  -25.6011  -19.0077 H   0  0  0  0  0  0
  -23.2868  -20.9361  -23.0919 H   0  0  0  0  0  0
  -28.3599  -21.1391  -21.4325 H   0  0  0  0  0  0
  -27.7832  -19.5267  -21.0409 H   0  0  0  0  0  0
  -30.1475  -20.2128  -22.4285 H   0  0  0  0  0  0
  -31.1848  -19.3342  -24.5685 H   0  0  0  0  0  0
  -28.3099  -16.8932  -26.7783 H   0  0  0  0  0  0
  -29.5044  -16.7635  -28.0390 H   0  0  0  0  0  0
  -27.1730  -18.4227  -25.9368 H   0  0  0  0  0  0
  -26.3070  -19.3138  -23.7868 H   0  0  0  0  0  0
  -25.0714  -19.1087  -21.6683 H   0  0  0  0  0  0
  -25.7029  -19.6722  -20.1339 H   0  0  0  0  0  0
  1  2  2  0  0  0
  2 19  1  0  0  0
  2  3  1  0  0  0
  3  4  1  0  0  0
  3 18  1  0  0  0
  3 37  1  0  0  0
  4  5  1  0  0  0
  4 38  1  0  0  0
  5  6  1  0  0  0
  5 17  2  0  0  0
  6  7  1  0  0  0
  6 11  1  0  0  0
  6 39  1  0  0  0
  7  8  2  0  0  0
  7  9  1  0  0  0
  7 10  2  0  0  0
 11 16  1  0  0  0
 11 12  2  0  0  0
 12 13  1  0  0  0
 12 40  1  0  0  0
 13 14  2  0  0  0
 13 41  1  0  0  0
 14 15  1  0  0  0
 14 42  1  0  0  0
 15 16  2  0  0  0
 15 43  1  0  0  0
 16 44  1  0  0  0
 18 36  1  0  0  0
 18 19  1  0  0  0
 18 45  1  0  0  0
 19 20  1  0  0  0
 20 21  1  0  0  0
 20 24  2  0  0  0
 21 22  1  0  0  0
 21 23  2  0  0  0
 24 25  1  0  0  0
 24 35  1  0  0  0
 25 26  1  0  0  0
 25 46  1  0  0  0
 25 47  1  0  0  0
 26 34  1  0  0  0
 26 27  2  0  0  0
 27 28  1  0  0  0
 27 48  1  0  0  0
 28 29  2  0  0  0
 28 49  1  0  0  0
 29 30  1  0  0  0
 29 33  1  0  0  0
 30 31  1  0  0  0
 30 32  2  0  0  0
 31 50  1  0  0  0
 31 51  1  0  0  0
 33 34  2  0  0  0
 33 52  1  0  0  0
 34 53  1  0  0  0
 35 36  1  0  0  0
 35 54  1  0  0  0
 35 55  1  0  0  0
M  CHG  3   9  -1  22  -1  26   1
M  END
> <s_m_entry_id>
27281

> <s_m_entry_name>
data_maestro.27

> <s_m_Source_Path>
C:\Users\olshana1\Git\GramNeg-Accumulation\Gram Negative Permeation - OmpF

> <s_m_Source_File>
data_maestro.csv

> <i_m_Source_File_Index>
27

> <s_m_job_name>
glide-dock_Nicaido_neutral

> <s_i_glide_gridfile>
3POX-grid

> <i_i_glide_lignum>
34

> <i_i_glide_rotatable_bonds>
9

> <r_i_docking_score>
-5.81236501135605

> <r_i_glide_ligand_efficiency>
-0.161454583648779

> <r_i_glide_ligand_efficiency_sa>
-0.533111288572036

> <r_i_glide_ligand_efficiency_ln>
-1.26810101352256

> <r_i_glide_gscore>
-5.81236501135605

> <r_i_glide_lipo>
0

> <r_i_glide_hbond>
-0.605526032694811

> <r_i_glide_metal>
0

> <r_i_glide_rewards>
0.000171536952330244

> <r_i_glide_evdw>
-25.5846385955811

> <r_i_glide_ecoul>
-23.7520599365234

> <r_i_glide_erotb>
0.364921022123239

> <r_i_glide_esite>
-0.72989061747924

> <r_i_glide_emodel>
-88.4011137532005

> <r_i_glide_energy>
-49.3366985321045

> <r_i_glide_einternal>
9.65915679931641

> <i_i_glide_confnum>
80

> <i_i_glide_posenum>
152

> <r_i_glide_eff_state_penalty>
0

> <r_glide_res:A132_vdw>
-2.41266792070126

> <r_glide_res:A132_coul>
-37.4498674659878

> <r_glide_res:A132_hbond>
0

> <r_glide_res:A132_dist>
2.88548041706071

> <r_glide_res:A132_Eint>
-39.862535386689

> <r_glide_res:A117_vdw>
-2.85860059933623

> <r_glide_res:A117_coul>
-14.5416060829436

> <r_glide_res:A117_hbond>
-0.16

> <r_glide_res:A117_dist>
1.93065595987688

> <r_glide_res:A117_Eint>
-17.5602066822798

> <r_glide_res:A113_vdw>
-0.789368988212098

> <r_glide_res:A113_coul>
5.78284792448845

> <r_glide_res:A113_hbond>
0

> <r_glide_res:A113_dist>
3.85790383816266

> <r_glide_res:A113_Eint>
4.99347893627635

> <r_glide_res:A82_vdw>
2.1229347537734

> <r_glide_res:A82_coul>
-45.3144534264461

> <r_glide_res:A82_hbond>
-0.2

> <r_glide_res:A82_dist>
1.60405838254896

> <r_glide_res:A82_Eint>
-43.3915186726727

> <r_glide_res:A42_vdw>
-0.833190142151132

> <r_glide_res:A42_coul>
-33.3728171657062

> <r_glide_res:A42_hbond>
-0.2

> <r_glide_res:A42_dist>
1.88522888749105

> <r_glide_res:A42_Eint>
-34.4060073078574

> <r_glide_res:A16_vdw>
-0.338511041913211

> <r_glide_res:A16_coul>
-17.1284053385303

> <r_glide_res:A16_hbond>
0

> <r_glide_res:A16_dist>
2.56534259708816

> <r_glide_res:A16_Eint>
-17.4669163804436

> <s_m_source_file>
ligprep_Nicaido_neutral.maegz

> <i_m_source_file_index>
27

> <i_lp_mmshare_version>
58128

> <i_f3d_flags>
0

> <s_lp_Force_Field>
S-OPLS

> <r_lp_Energy>
54.611133

> <b_lp_Chiralities_Consistent>
1

> <s_lp_Variant>
Cefsulodin-1

> <s_epik_input>
W05IMl1DKD1PKWMoW2NIXVtjSF0xKVtjSF1bY0hdW24rXTFbQ0gyXUMoW0NIMl1TMik9QyhDKD1PKVtPSF0pTihbQ0BASF0yMylDKD1PKVtDQEBIXTNbTkhdQyg9TylbQ0BIXShTKD1PKSg9TylbT0hdKWM0W2NIXVtjSF1bY0hdW2NIXVtjSF00

> <s_epik_cmdline>
J2VwaWtfcHl0aG9uJywgJy1waHQnLCAnMC4wJywgJy1waCcsICc3LjQnLCAnLW50JywgJy1tYScsICc1MDAnLCAnLWltYWUnLCAnPGluZmlsZS5tYWU+JywgJy1vbWFlJywgJzxvdXRmaWxlLm1hZT4n

> <r_lp_tautomer_probability>
1

> <r_epik_Ionization_Penalty>
  0.0010

> <r_epik_Ionization_Penalty_Charging>
  0.0000

> <r_epik_Ionization_Penalty_Neutral>
  0.0010

> <r_epik_State_Penalty>
  0.0000

> <r_epik_Charging_Adjusted_Penalty>
1.59615623662622e-05

> <i_epik_Tot_Q>
-1

> <i_epik_Tot_abs_Q>
3

> <s_epik_Chemistry_Notes>
This compound contains an acetal/aminal-like group ( X-CH(R)-Y where X, Y are N, S, or O) that may be acid/base labile, releasing an aldehyde.

> <s_m_subgroup_title>
glide-dock_Nicaido_neutral_pv1

> <s_m_subgroupid>
glide-dock_Nicaido_neutral_pv1

> <b_m_subgroup_collapsed>
0

$$$$
SCE-796
                    3D
 Schrodinger Suite 2022-2.
 54 57  0  0  1  0            999 V2000
  -24.7687  -24.8976  -19.1040 O   0  0  0  0  0  0
  -24.8375  -23.7862  -18.6255 C   0  0  0  0  0  0
  -24.4823  -23.1120  -17.2763 C   0  0  2  0  0  0
  -25.1174  -21.8436  -17.8805 C   0  0  2  0  0  0
  -25.2034  -22.5519  -19.1481 N   0  0  0  0  0  0
  -25.5666  -21.9419  -20.3741 C   0  0  0  0  0  0
  -26.0193  -22.9492  -21.5174 C   0  0  0  0  0  0
  -25.7058  -22.6719  -22.6943 O   0  5  0  0  0  0
  -26.6881  -23.9496  -21.1685 O   0  0  0  0  0  0
  -25.5662  -20.5810  -20.5248 C   0  0  0  0  0  0
  -25.1509  -19.6045  -19.4190 C   0  0  0  0  0  0
  -24.1460  -20.3242  -18.1109 S   0  0  0  0  0  0
  -25.9748  -19.8328  -21.8031 C   0  0  0  0  0  0
  -27.4400  -19.8244  -21.9762 N   0  3  0  0  0  0
  -28.0005  -20.4654  -23.0340 C   0  0  0  0  0  0
  -29.4015  -20.4879  -23.2020 C   0  0  0  0  0  0
  -30.2192  -19.8292  -22.2600 C   0  0  0  0  0  0
  -29.5975  -19.1184  -21.2136 C   0  0  0  0  0  0
  -28.2011  -19.1500  -21.0824 C   0  0  0  0  0  0
  -31.7124  -19.8746  -22.3730 C   0  0  0  0  0  0
  -32.3688  -19.8988  -21.2134 N   0  0  0  0  0  0
  -32.2719  -19.9565  -23.4643 O   0  0  0  0  0  0
  -23.0505  -22.9078  -17.0772 N   0  0  0  0  0  0
  -22.0976  -23.8432  -16.9710 C   0  0  0  0  0  0
  -20.6631  -23.2814  -17.1349 C   0  0  2  0  0  0
  -20.4338  -22.7286  -18.5482 C   0  0  0  0  0  0
  -19.8449  -21.4548  -18.7042 C   0  0  0  0  0  0
  -19.6666  -20.9007  -19.9873 C   0  0  0  0  0  0
  -20.0767  -21.6157  -21.1281 C   0  0  0  0  0  0
  -20.6602  -22.8882  -20.9852 C   0  0  0  0  0  0
  -20.8358  -23.4435  -19.7032 C   0  0  0  0  0  0
  -19.6191  -24.3592  -16.7834 C   0  0  0  0  0  0
  -19.2970  -25.2182  -17.6407 O   0  5  0  0  0  0
  -19.1690  -24.3495  -15.6130 O   0  0  0  0  0  0
  -22.3585  -25.0417  -16.8189 O   0  0  0  0  0  0
  -25.0104  -23.4824  -16.3992 H   0  0  0  0  0  0
  -26.1112  -21.6274  -17.4814 H   0  0  0  0  0  0
  -24.5750  -18.7783  -19.8360 H   0  0  0  0  0  0
  -26.0387  -19.1756  -18.9577 H   0  0  0  0  0  0
  -25.6638  -18.7866  -21.7775 H   0  0  0  0  0  0
  -25.5041  -20.2512  -22.6913 H   0  0  0  0  0  0
  -27.3240  -20.9573  -23.7155 H   0  0  0  0  0  0
  -29.8471  -21.0158  -24.0322 H   0  0  0  0  0  0
  -30.1703  -18.5800  -20.4666 H   0  0  0  0  0  0
  -27.6859  -18.6264  -20.2914 H   0  0  0  0  0  0
  -31.8449  -19.9081  -20.3351 H   0  0  0  0  0  0
  -33.3764  -19.9477  -21.1894 H   0  0  0  0  0  0
  -22.7400  -21.9539  -17.2058 H   0  0  0  0  0  0
  -20.5481  -22.4678  -16.4166 H   0  0  0  0  0  0
  -19.5346  -20.8896  -17.8379 H   0  0  0  0  0  0
  -19.2201  -19.9232  -20.0946 H   0  0  0  0  0  0
  -19.9442  -21.1872  -22.1103 H   0  0  0  0  0  0
  -20.9803  -23.4377  -21.8574 H   0  0  0  0  0  0
  -21.2876  -24.4211  -19.6076 H   0  0  0  0  0  0
  1  2  2  0  0  0
  2  5  1  0  0  0
  2  3  1  0  0  0
  3  4  1  0  0  0
  3 23  1  0  0  0
  3 36  1  0  0  0
  4 12  1  0  0  0
  4  5  1  0  0  0
  4 37  1  0  0  0
  5  6  1  0  0  0
  6  7  1  0  0  0
  6 10  2  0  0  0
  7  8  1  0  0  0
  7  9  2  0  0  0
 10 11  1  0  0  0
 10 13  1  0  0  0
 11 12  1  0  0  0
 11 38  1  0  0  0
 11 39  1  0  0  0
 13 14  1  0  0  0
 13 40  1  0  0  0
 13 41  1  0  0  0
 14 19  1  0  0  0
 14 15  2  0  0  0
 15 16  1  0  0  0
 15 42  1  0  0  0
 16 17  2  0  0  0
 16 43  1  0  0  0
 17 18  1  0  0  0
 17 20  1  0  0  0
 18 19  2  0  0  0
 18 44  1  0  0  0
 19 45  1  0  0  0
 20 21  1  0  0  0
 20 22  2  0  0  0
 21 46  1  0  0  0
 21 47  1  0  0  0
 23 24  1  0  0  0
 23 48  1  0  0  0
 24 25  1  0  0  0
 24 35  2  0  0  0
 25 26  1  0  0  0
 25 32  1  0  0  0
 25 49  1  0  0  0
 26 31  1  0  0  0
 26 27  2  0  0  0
 27 28  1  0  0  0
 27 50  1  0  0  0
 28 29  2  0  0  0
 28 51  1  0  0  0
 29 30  1  0  0  0
 29 52  1  0  0  0
 30 31  2  0  0  0
 30 53  1  0  0  0
 31 54  1  0  0  0
 32 33  1  0  0  0
 32 34  2  0  0  0
M  CHG  3   8  -1  14   1  33  -1
M  END
> <s_m_entry_id>
27282

> <s_m_entry_name>
data_maestro.28

> <s_m_Source_Path>
C:\Users\olshana1\Git\GramNeg-Accumulation\Gram Negative Permeation - OmpF

> <s_m_Source_File>
data_maestro.csv

> <i_m_Source_File_Index>
28

> <s_m_job_name>
glide-dock_Nicaido_neutral

> <s_i_glide_gridfile>
3POX-grid

> <i_i_glide_lignum>
35

> <i_i_glide_rotatable_bonds>
9

> <r_i_docking_score>
-5.81081640825758

> <r_i_glide_ligand_efficiency>
-0.166023325950216

> <r_i_glide_ligand_efficiency_sa>
-0.543073307577607

> <r_i_glide_ligand_efficiency_ln>
-1.27560316573432

> <r_i_glide_gscore>
-5.81081640825758

> <r_i_glide_lipo>
0

> <r_i_glide_hbond>
-0.905010869743386

> <r_i_glide_metal>
0

> <r_i_glide_rewards>
-0.0219028542155516

> <r_i_glide_evdw>
-27.2577304840088

> <r_i_glide_ecoul>
-22.8474826812744

> <r_i_glide_erotb>
0.415177540389138

> <r_i_glide_esite>
-0.509071298296174

> <r_i_glide_emodel>
-86.7291002253448

> <r_i_glide_energy>
-50.1052131652832

> <r_i_glide_einternal>
5.34423017501831

> <i_i_glide_confnum>
25

> <i_i_glide_posenum>
18

> <r_i_glide_eff_state_penalty>
0

> <r_glide_res:A132_vdw>
-0.775560526162825

> <r_glide_res:A132_coul>
-43.4231631795883

> <r_glide_res:A132_hbond>
-0.249010869743386

> <r_glide_res:A132_dist>
1.93699482783788

> <r_glide_res:A132_Eint>
-44.4477345754945

> <r_glide_res:A117_vdw>
-2.18671783703616

> <r_glide_res:A117_coul>
0.0478024768777178

> <r_glide_res:A117_hbond>
0

> <r_glide_res:A117_dist>
2.70641533239156

> <r_glide_res:A117_Eint>
-2.13891536015844

> <r_glide_res:A113_vdw>
-1.08905459389771

> <r_glide_res:A113_coul>
-6.66458129155136

> <r_glide_res:A113_hbond>
-0.152

> <r_glide_res:A113_dist>
1.93254318831357

> <r_glide_res:A113_Eint>
-7.90563588544907

> <r_glide_res:A82_vdw>
-1.05587865359396

> <r_glide_res:A82_coul>
-27.883382168397

> <r_glide_res:A82_hbond>
0

> <r_glide_res:A82_dist>
2.8478233582108

> <r_glide_res:A82_Eint>
-28.9392608219909

> <r_glide_res:A42_vdw>
-0.57061963865848

> <r_glide_res:A42_coul>
-17.2167178725518

> <r_glide_res:A42_hbond>
0

> <r_glide_res:A42_dist>
3.22031643365

> <r_glide_res:A42_Eint>
-17.7873375112103

> <r_glide_res:A16_vdw>
-0.167435016832549

> <r_glide_res:A16_coul>
-8.99434799093765

> <r_glide_res:A16_hbond>
0

> <r_glide_res:A16_dist>
4.11414857515549

> <r_glide_res:A16_Eint>
-9.1617830077702

> <s_m_source_file>
ligprep_Nicaido_neutral.maegz

> <i_m_source_file_index>
28

> <i_lp_mmshare_version>
58128

> <i_f3d_flags>
0

> <s_lp_Force_Field>
S-OPLS

> <r_lp_Energy>
64.89814

> <b_lp_Chiralities_Consistent>
1

> <s_lp_Variant>
SCE-796-1

> <s_epik_input>
W2NIXTFbY0hdW2NIXVtjSF1bY0hdYzFbQ0BIXShDKD1PKVtPSF0pQyg9TylbTkhdW0NAQEhdMkMoPU8pTihbQ0BASF0yMylDKEMoPU8pW09IXSk9QyhbQ0gyXVMzKVtDSDJdW24rXTRbY0hdW2NIXWMoW2NIXVtjSF00KUMoPU8pW05IMl0=

> <s_epik_cmdline>
J2VwaWtfcHl0aG9uJywgJy1waHQnLCAnMC4wJywgJy1waCcsICc3LjQnLCAnLW50JywgJy1tYScsICc1MDAnLCAnLWltYWUnLCAnPGluZmlsZS5tYWU+JywgJy1vbWFlJywgJzxvdXRmaWxlLm1hZT4n

> <r_lp_tautomer_probability>
1

> <r_epik_Ionization_Penalty>
  0.0010

> <r_epik_Ionization_Penalty_Charging>
  0.0001

> <r_epik_Ionization_Penalty_Neutral>
  0.0010

> <r_epik_State_Penalty>
  0.0000

> <r_epik_Charging_Adjusted_Penalty>
5.79311335039239e-05

> <i_epik_Tot_Q>
-1

> <i_epik_Tot_abs_Q>
3

> <s_epik_Chemistry_Notes>
This compound contains an acetal/aminal-like group ( X-CH(R)-Y where X, Y are N, S, or O) that may be acid/base labile, releasing an aldehyde.

> <s_m_subgroup_title>
glide-dock_Nicaido_neutral_pv1

> <s_m_subgroupid>
glide-dock_Nicaido_neutral_pv1

> <b_m_subgroup_collapsed>
0

$$$$
Ceftazidime
                    3D
 Schrodinger Suite 2022-2.
 58 61  0  0  1  0            999 V2000
  -31.4848  -25.7610  -27.2552 C   0  0  0  0  0  0
  -32.2470  -24.7416  -26.3851 C   0  0  0  0  0  0
  -33.3898  -24.1264  -27.2356 C   0  0  0  0  0  0
  -32.7922  -25.4848  -25.1321 C   0  0  0  0  0  0
  -34.0007  -25.3398  -24.8349 O   0  5  0  0  0  0
  -31.9837  -26.1927  -24.4828 O   0  0  0  0  0  0
  -31.2636  -23.7585  -26.0162 O   0  0  0  0  0  0
  -31.8650  -22.6548  -25.3702 N   0  0  0  0  0  0
  -31.0601  -21.8850  -24.7441 C   0  0  0  0  0  0
  -29.5505  -22.0882  -24.5610 C   0  0  0  0  0  0
  -28.8937  -21.0093  -24.1029 N   0  0  0  0  0  0
  -27.4697  -20.8873  -23.7602 C   0  0  1  0  0  0
  -27.3100  -20.2102  -22.3876 C   0  0  2  0  0  0
  -26.9818  -21.5178  -21.8463 N   0  0  0  0  0  0
  -26.7862  -21.7528  -20.4716 C   0  0  0  0  0  0
  -26.1410  -23.1397  -20.1006 C   0  0  0  0  0  0
  -25.0343  -23.0945  -19.5248 O   0  5  0  0  0  0
  -26.7723  -24.1720  -20.4236 O   0  0  0  0  0  0
  -27.1965  -20.8603  -19.5246 C   0  0  0  0  0  0
  -26.9803  -21.0575  -18.0220 C   0  0  0  0  0  0
  -25.5768  -20.8181  -17.6097 N   0  3  0  0  0  0
  -24.9760  -19.6360  -17.9072 C   0  0  0  0  0  0
  -23.6569  -19.3697  -17.4847 C   0  0  0  0  0  0
  -22.9661  -20.3389  -16.7315 C   0  0  0  0  0  0
  -23.6150  -21.5486  -16.4137 C   0  0  0  0  0  0
  -24.9329  -21.7609  -16.8690 C   0  0  0  0  0  0
  -27.9586  -19.5691  -19.8477 C   0  0  0  0  0  0
  -28.7270  -19.5502  -21.4750 S   0  0  0  0  0  0
  -26.7891  -22.1117  -23.0782 C   0  0  0  0  0  0
  -26.2716  -23.1499  -23.4308 O   0  0  0  0  0  0
  -28.9832  -23.1497  -24.8133 O   0  0  0  0  0  0
  -31.5985  -20.6441  -24.1381 C   0  0  0  0  0  0
  -31.9752  -20.5803  -22.8161 C   0  0  0  0  0  0
  -32.4919  -18.9756  -22.3624 S   0  0  0  0  0  0
  -32.1791  -18.4547  -24.0119 C   0  0  0  0  0  0
  -32.3857  -17.1503  -24.4136 N   0  0  0  0  0  0
  -31.7232  -19.4217  -24.8091 N   0  0  0  0  0  0
  -32.1252  -26.6021  -27.5268 H   0  0  0  0  0  0
  -31.1421  -25.3025  -28.1827 H   0  0  0  0  0  0
  -30.6159  -26.1710  -26.7373 H   0  0  0  0  0  0
  -34.0654  -24.9034  -27.5959 H   0  0  0  0  0  0
  -33.9970  -23.4169  -26.6723 H   0  0  0  0  0  0
  -32.9905  -23.6027  -28.1042 H   0  0  0  0  0  0
  -29.4449  -20.1865  -23.8977 H   0  0  0  0  0  0
  -26.8784  -20.3937  -24.5304 H   0  0  0  0  0  0
  -26.4544  -19.5331  -22.3397 H   0  0  0  0  0  0
  -27.5893  -20.3560  -17.4573 H   0  0  0  0  0  0
  -27.2825  -22.0608  -17.7215 H   0  0  0  0  0  0
  -25.5642  -18.9161  -18.4530 H   0  0  0  0  0  0
  -23.1908  -18.4208  -17.7164 H   0  0  0  0  0  0
  -21.9567  -20.1496  -16.3926 H   0  0  0  0  0  0
  -23.1145  -22.2990  -15.8182 H   0  0  0  0  0  0
  -25.4866  -22.6614  -16.6463 H   0  0  0  0  0  0
  -28.7656  -19.4123  -19.1319 H   0  0  0  0  0  0
  -27.2909  -18.7119  -19.7761 H   0  0  0  0  0  0
  -31.9671  -21.3620  -22.0696 H   0  0  0  0  0  0
  -31.9278  -16.8468  -25.2648 H   0  0  0  0  0  0
  -32.3699  -16.4545  -23.6692 H   0  0  0  0  0  0
  1  2  1  0  0  0
  1 38  1  0  0  0
  1 39  1  0  0  0
  1 40  1  0  0  0
  2  3  1  0  0  0
  2  4  1  0  0  0
  2  7  1  0  0  0
  3 41  1  0  0  0
  3 42  1  0  0  0
  3 43  1  0  0  0
  4  5  1  0  0  0
  4  6  2  0  0  0
  7  8  1  0  0  0
  8  9  2  3  0  0
  9 10  1  0  0  0
  9 32  1  0  0  0
 10 11  1  0  0  0
 10 31  2  0  0  0
 11 12  1  0  0  0
 11 44  1  0  0  0
 12 29  1  0  0  0
 12 13  1  0  0  0
 12 45  1  0  0  0
 13 28  1  0  0  0
 13 14  1  0  0  0
 13 46  1  0  0  0
 14 15  1  0  0  0
 14 29  1  0  0  0
 15 16  1  0  0  0
 15 19  2  0  0  0
 16 17  1  0  0  0
 16 18  2  0  0  0
 19 20  1  0  0  0
 19 27  1  0  0  0
 20 21  1  0  0  0
 20 47  1  0  0  0
 20 48  1  0  0  0
 21 26  1  0  0  0
 21 22  2  0  0  0
 22 23  1  0  0  0
 22 49  1  0  0  0
 23 24  2  0  0  0
 23 50  1  0  0  0
 24 25  1  0  0  0
 24 51  1  0  0  0
 25 26  2  0  0  0
 25 52  1  0  0  0
 26 53  1  0  0  0
 27 28  1  0  0  0
 27 54  1  0  0  0
 27 55  1  0  0  0
 29 30  2  0  0  0
 32 37  1  0  0  0
 32 33  2  0  0  0
 33 34  1  0  0  0
 33 56  1  0  0  0
 34 35  1  0  0  0
 35 36  1  0  0  0
 35 37  2  0  0  0
 36 57  1  0  0  0
 36 58  1  0  0  0
M  CHG  3   5  -1  17  -1  21   1
M  END
> <s_m_entry_id>
27283

> <s_m_entry_name>
data_maestro.30

> <s_m_Source_Path>
C:\Users\olshana1\Git\GramNeg-Accumulation\Gram Negative Permeation - OmpF

> <s_m_Source_File>
data_maestro.csv

> <i_m_Source_File_Index>
30

> <s_m_job_name>
glide-dock_Nicaido_neutral

> <s_i_glide_gridfile>
3POX-grid

> <i_i_glide_lignum>
39

> <i_i_glide_rotatable_bonds>
10

> <r_i_docking_score>
-5.80794302339707

> <r_i_glide_ligand_efficiency>
-0.156971433064786

> <r_i_glide_ligand_efficiency_sa>
-0.523063638713079

> <r_i_glide_ligand_efficiency_ln>
-1.2596066842722

> <r_i_glide_gscore>
-5.80794302339707

> <r_i_glide_lipo>
0

> <r_i_glide_hbond>
-0.964900453561954

> <r_i_glide_metal>
0

> <r_i_glide_rewards>
-0.211517577913463

> <r_i_glide_evdw>
-33.356616973877

> <r_i_glide_ecoul>
-18.8920001983643

> <r_i_glide_erotb>
0.556495996469625

> <r_i_glide_esite>
-0.686390109942787

> <r_i_glide_emodel>
-88.9262914253994

> <r_i_glide_energy>
-52.2486171722412

> <r_i_glide_einternal>
10.4161281585693

> <i_i_glide_confnum>
187

> <i_i_glide_posenum>
285

> <r_i_glide_eff_state_penalty>
0

> <r_glide_res:A132_vdw>
0.308364519295192

> <r_glide_res:A132_coul>
-53.8857423521687

> <r_glide_res:A132_hbond>
-0.345836219980048

> <r_glide_res:A132_dist>
1.82024576766757

> <r_glide_res:A132_Eint>
-53.9232140528536

> <r_glide_res:A117_vdw>
-3.14316525842268

> <r_glide_res:A117_coul>
9.58893365906839

> <r_glide_res:A117_hbond>
0

> <r_glide_res:A117_dist>
2.90705249874641

> <r_glide_res:A117_Eint>
6.44576840064571

> <r_glide_res:A113_vdw>
-3.54921273496338

> <r_glide_res:A113_coul>
15.3838697818309

> <r_glide_res:A113_hbond>
0

> <r_glide_res:A113_dist>
2.22329557328421

> <r_glide_res:A113_Eint>
11.8346570468675

> <r_glide_res:A82_vdw>
-0.173398273236493

> <r_glide_res:A82_coul>
-62.4987674247658

> <r_glide_res:A82_hbond>
-0.139064233581905

> <r_glide_res:A82_dist>
1.95591506078771

> <r_glide_res:A82_Eint>
-62.8112299315842

> <r_glide_res:A42_vdw>
-1.3924470755636

> <r_glide_res:A42_coul>
-44.9467984219588

> <r_glide_res:A42_hbond>
-0.16

> <r_glide_res:A42_dist>
1.8305298383937

> <r_glide_res:A42_Eint>
-46.4992454975224

> <r_glide_res:A16_vdw>
-2.06095879682364

> <r_glide_res:A16_coul>
-30.4407381314402

> <r_glide_res:A16_hbond>
0

> <r_glide_res:A16_dist>
2.69326459654046

> <r_glide_res:A16_Eint>
-32.5016969282639

> <s_m_source_file>
ligprep_Nicaido_neutral.maegz

> <i_m_source_file_index>
30

> <i_lp_mmshare_version>
58128

> <i_f3d_flags>
0

> <s_lp_Force_Field>
S-OPLS

> <r_lp_Energy>
82.572273

> <b_lp_Chiralities_Consistent>
1

> <s_lp_Variant>
Ceftazidime-2

> <s_epik_input>
W09IXUMoPU8pQyhbQ0gzXSkoW0NIM10pTy9OPUMoYzFbY0hdc2MobjEpW05IMl0pL0MoPU8pW05IXVtDQEBIXTJDKD1PKU4oW0NAQEhdMjMpQyhDKD1PKVtPSF0pPUMoW0NIMl1TMylbQ0gyXVtuK100W2NIXVtjSF1bY0hdW2NIXVtjSF00

> <s_epik_cmdline>
J2VwaWtfcHl0aG9uJywgJy1waHQnLCAnMC4wJywgJy1waCcsICc3LjQnLCAnLW50JywgJy1tYScsICc1MDAnLCAnLWltYWUnLCAnPGluZmlsZS5tYWU+JywgJy1vbWFlJywgJzxvdXRmaWxlLm1hZT4n

> <r_lp_tautomer_probability>
1

> <r_epik_Ionization_Penalty>
  0.0005

> <r_epik_Ionization_Penalty_Charging>
  0.0001

> <r_epik_Ionization_Penalty_Neutral>
  0.0005

> <r_epik_State_Penalty>
  0.0000

> <r_epik_Charging_Adjusted_Penalty>
5.84857251211915e-05

> <i_epik_Tot_Q>
-1

> <i_epik_Tot_abs_Q>
3

> <s_epik_Chemistry_Notes>
This compound has an imine and may undergo hydrolysis. This compound contains an acetal/aminal-like group ( X-CH(R)-Y where X, Y are N, S, or O) that may be acid/base labile, releasing an aldehyde.

> <s_m_subgroup_title>
glide-dock_Nicaido_neutral_pv1

> <s_m_subgroupid>
glide-dock_Nicaido_neutral_pv1

> <b_m_subgroup_collapsed>
0

$$$$
Cefoperazone
                    3D
 Schrodinger Suite 2022-2.
 70 74  0  0  1  0            999 V2000
  -37.5452  -31.4297  -22.9355 C   0  0  0  0  0  0
  -36.0864  -31.0552  -23.2358 C   0  0  0  0  0  0
  -35.9485  -29.6535  -23.6462 N   0  0  0  0  0  0
  -35.4605  -28.7302  -22.6213 C   0  0  0  0  0  0
  -35.9942  -27.3091  -22.8713 C   0  0  0  0  0  0
  -35.7009  -26.8665  -24.2506 N   0  0  0  0  0  0
  -35.8395  -27.7679  -25.2753 C   0  0  0  0  0  0
  -36.2354  -29.2341  -24.9016 C   0  0  0  0  0  0
  -36.7622  -29.9496  -25.7598 O   0  0  0  0  0  0
  -35.7131  -27.5119  -26.4776 O   0  0  0  0  0  0
  -35.3811  -25.5496  -24.4146 C   0  0  0  0  0  0
  -34.5625  -25.2544  -25.4385 N   0  0  0  0  0  0
  -34.3252  -23.9206  -25.9805 C   0  0  2  0  0  0
  -34.0832  -24.0777  -27.4526 C   0  0  0  0  0  0
  -34.7406  -23.2391  -28.3818 C   0  0  0  0  0  0
  -34.5722  -23.4011  -29.7711 C   0  0  0  0  0  0
  -33.7265  -24.4103  -30.2685 C   0  0  0  0  0  0
  -33.0443  -25.2436  -29.3682 C   0  0  0  0  0  0
  -33.2243  -25.0785  -27.9816 C   0  0  0  0  0  0
  -33.5690  -24.5910  -31.6123 O   0  0  0  0  0  0
  -33.0282  -23.2934  -25.4412 C   0  0  0  0  0  0
  -33.0167  -21.9478  -25.3423 N   0  0  0  0  0  0
  -31.9285  -21.0555  -24.9015 C   0  0  1  0  0  0
  -31.4319  -21.3236  -23.4658 C   0  0  1  0  0  0
  -30.0935  -21.4068  -24.0237 N   0  0  0  0  0  0
  -30.5107  -21.4838  -25.3487 C   0  0  0  0  0  0
  -29.9867  -21.8332  -26.3889 O   0  0  0  0  0  0
  -29.0816  -21.8364  -23.1548 C   0  0  0  0  0  0
  -28.2469  -23.0774  -23.6002 C   0  0  0  0  0  0
  -27.9690  -23.1418  -24.8116 O   0  5  0  0  0  0
  -27.9690  -23.9493  -22.7429 O   0  0  0  0  0  0
  -28.8546  -21.1187  -22.0276 C   0  0  0  0  0  0
  -29.6971  -19.8877  -21.7059 C   0  0  0  0  0  0
  -31.4663  -20.0411  -22.1533 S   0  0  0  0  0  0
  -27.6787  -21.3502  -21.0828 C   0  0  0  0  0  0
  -28.1574  -22.1942  -19.5514 S   0  0  0  0  0  0
  -26.5802  -22.8333  -19.1152 C   0  0  0  0  0  0
  -26.0589  -23.9497  -19.6113 N   0  0  0  0  0  0
  -24.8375  -24.0593  -18.9749 N   0  0  0  0  0  0
  -24.6390  -23.0622  -18.1618 N   0  0  0  0  0  0
  -25.7369  -22.2691  -18.2396 N   0  0  0  0  0  0
  -25.8134  -21.0482  -17.4649 C   0  0  0  0  0  0
  -32.0758  -24.0148  -25.1336 O   0  0  0  0  0  0
  -35.7649  -24.6728  -23.6395 O   0  0  0  0  0  0
  -37.6143  -32.4681  -22.6083 H   0  0  0  0  0  0
  -38.1777  -31.3210  -23.8172 H   0  0  0  0  0  0
  -37.9597  -30.8029  -22.1442 H   0  0  0  0  0  0
  -35.4719  -31.2487  -22.3560 H   0  0  0  0  0  0
  -35.6903  -31.7107  -24.0131 H   0  0  0  0  0  0
  -35.7673  -29.0613  -21.6285 H   0  0  0  0  0  0
  -34.3698  -28.7311  -22.6379 H   0  0  0  0  0  0
  -37.0732  -27.2761  -22.7100 H   0  0  0  0  0  0
  -35.5507  -26.6506  -22.1197 H   0  0  0  0  0  0
  -34.2597  -26.0225  -26.0208 H   0  0  0  0  0  0
  -35.1791  -23.2687  -25.7850 H   0  0  0  0  0  0
  -35.4083  -22.4670  -28.0292 H   0  0  0  0  0  0
  -35.1052  -22.7501  -30.4464 H   0  0  0  0  0  0
  -32.3964  -26.0245  -29.7392 H   0  0  0  0  0  0
  -32.6971  -25.7453  -27.3135 H   0  0  0  0  0  0
  -34.1763  -24.0937  -32.1393 H   0  0  0  0  0  0
  -33.8735  -21.4790  -25.5965 H   0  0  0  0  0  0
  -32.1458  -20.0009  -25.0657 H   0  0  0  0  0  0
  -31.7474  -22.2880  -23.0638 H   0  0  0  0  0  0
  -29.6242  -19.6558  -20.6442 H   0  0  0  0  0  0
  -29.2714  -19.0351  -22.2353 H   0  0  0  0  0  0
  -26.8911  -21.9206  -21.5720 H   0  0  0  0  0  0
  -27.2284  -20.3904  -20.8283 H   0  0  0  0  0  0
  -26.8158  -20.6223  -17.5266 H   0  0  0  0  0  0
  -25.5688  -21.2527  -16.4179 H   0  0  0  0  0  0
  -25.1023  -20.3204  -17.8575 H   0  0  0  0  0  0
  1  2  1  0  0  0
  1 45  1  0  0  0
  1 46  1  0  0  0
  1 47  1  0  0  0
  2  3  1  0  0  0
  2 48  1  0  0  0
  2 49  1  0  0  0
  3  8  1  0  0  0
  3  4  1  0  0  0
  4  5  1  0  0  0
  4 50  1  0  0  0
  4 51  1  0  0  0
  5  6  1  0  0  0
  5 52  1  0  0  0
  5 53  1  0  0  0
  6  7  1  0  0  0
  6 11  1  0  0  0
  7  8  1  0  0  0
  7 10  2  0  0  0
  8  9  2  0  0  0
 11 12  1  0  0  0
 11 44  2  0  0  0
 12 13  1  0  0  0
 12 54  1  0  0  0
 13 14  1  0  0  0
 13 21  1  0  0  0
 13 55  1  0  0  0
 14 19  1  0  0  0
 14 15  2  0  0  0
 15 16  1  0  0  0
 15 56  1  0  0  0
 16 17  2  0  0  0
 16 57  1  0  0  0
 17 18  1  0  0  0
 17 20  1  0  0  0
 18 19  2  0  0  0
 18 58  1  0  0  0
 19 59  1  0  0  0
 20 60  1  0  0  0
 21 22  1  0  0  0
 21 43  2  0  0  0
 22 23  1  0  0  0
 22 61  1  0  0  0
 23 26  1  0  0  0
 23 24  1  0  0  0
 23 62  1  0  0  0
 24 34  1  0  0  0
 24 25  1  0  0  0
 24 63  1  0  0  0
 25 26  1  0  0  0
 25 28  1  0  0  0
 26 27  2  0  0  0
 28 29  1  0  0  0
 28 32  2  0  0  0
 29 30  1  0  0  0
 29 31  2  0  0  0
 32 33  1  0  0  0
 32 35  1  0  0  0
 33 34  1  0  0  0
 33 64  1  0  0  0
 33 65  1  0  0  0
 35 36  1  0  0  0
 35 66  1  0  0  0
 35 67  1  0  0  0
 36 37  1  0  0  0
 37 41  1  0  0  0
 37 38  2  0  0  0
 38 39  1  0  0  0
 39 40  2  0  0  0
 40 41  1  0  0  0
 41 42  1  0  0  0
 42 68  1  0  0  0
 42 69  1  0  0  0
 42 70  1  0  0  0
M  CHG  1  30  -1
M  END
> <s_m_entry_id>
27284

> <s_m_entry_name>
data_maestro.8

> <s_m_Source_Path>
C:\Users\olshana1\Git\GramNeg-Accumulation\Gram Negative Permeation - OmpF

> <s_m_Source_File>
data_maestro.csv

> <i_m_Source_File_Index>
8

> <s_m_job_name>
glide-dock_Nicaido_neutral

> <s_i_glide_gridfile>
3POX-grid

> <i_i_glide_lignum>
11

> <i_i_glide_rotatable_bonds>
13

> <r_i_docking_score>
-5.80479673660011

> <r_i_glide_ligand_efficiency>
-0.131927198559093

> <r_i_glide_ligand_efficiency_sa>
-0.465748965229832

> <r_i_glide_ligand_efficiency_ln>
-1.21332914887949

> <r_i_glide_gscore>
-5.80479673660011

> <r_i_glide_lipo>
-0.253541310180888

> <r_i_glide_hbond>
-1.04940177258973

> <r_i_glide_metal>
0

> <r_i_glide_rewards>
-0.072057422325343

> <r_i_glide_evdw>
-36.5288772583008

> <r_i_glide_ecoul>
-15.6595325469971

> <r_i_glide_erotb>
0.362700252817045

> <r_i_glide_esite>
-0.617122739356589

> <r_i_glide_emodel>
-81.4397299711938

> <r_i_glide_energy>
-52.1884098052979

> <r_i_glide_einternal>
13.0210857391357

> <i_i_glide_confnum>
611

> <i_i_glide_posenum>
42

> <r_i_glide_eff_state_penalty>
0

> <r_glide_res:A132_vdw>
-2.21382342513272

> <r_glide_res:A132_coul>
-39.6190890823648

> <r_glide_res:A132_hbond>
0

> <r_glide_res:A132_dist>
2.20057925022031

> <r_glide_res:A132_Eint>
-41.8329125074975

> <r_glide_res:A117_vdw>
-1.26128800654324

> <r_glide_res:A117_coul>
21.6200189741441

> <r_glide_res:A117_hbond>
0

> <r_glide_res:A117_dist>
3.05859167119441

> <r_glide_res:A117_Eint>
20.3587309676008

> <r_glide_res:A113_vdw>
-3.38230184453304

> <r_glide_res:A113_coul>
25.1523901741326

> <r_glide_res:A113_hbond>
0

> <r_glide_res:A113_dist>
2.36500605461692

> <r_glide_res:A113_Eint>
21.7700883295996

> <r_glide_res:A82_vdw>
-0.0898543205359561

> <r_glide_res:A82_coul>
-52.241353540595

> <r_glide_res:A82_hbond>
-0.223119683555948

> <r_glide_res:A82_dist>
1.77280166330978

> <r_glide_res:A82_Eint>
-52.5543275446869

> <r_glide_res:A42_vdw>
3.18280156003439

> <r_glide_res:A42_coul>
-55.970356129959

> <r_glide_res:A42_hbond>
-0.346282089033785

> <r_glide_res:A42_dist>
1.75343566872456

> <r_glide_res:A42_Eint>
-53.1338366589584

> <r_glide_res:A16_vdw>
-3.51070400328284

> <r_glide_res:A16_coul>
-34.1244423627278

> <r_glide_res:A16_hbond>
-0.16

> <r_glide_res:A16_dist>
1.88166721441651

> <r_glide_res:A16_Eint>
-37.7951463660106

> <s_m_source_file>
ligprep_Nicaido_neutral.maegz

> <i_m_source_file_index>
8

> <i_lp_mmshare_version>
58128

> <i_f3d_flags>
0

> <s_lp_Force_Field>
S-OPLS

> <r_lp_Energy>
85.319288

> <b_lp_Chiralities_Consistent>
1

> <s_lp_Variant>
Cefoperazone-1

> <s_epik_input>
W0NIM11bQ0gyXU4xW0NIMl1bQ0gyXU4oQyg9TylDMT1PKUMoPU8pW05IXVtDQEhdKGMyW2NIXVtjSF1jKFtPSF0pW2NIXVtjSF0yKUMoPU8pW05IXVtDQEBIXTNDKD1PKU4oW0NASF0zNClDKEMoPU8pW09IXSk9QyhbQ0gyXVM0KVtDSDJdU2M1bm5ubjVbQ0gzXQ==

> <s_epik_cmdline>
J2VwaWtfcHl0aG9uJywgJy1waHQnLCAnMC4wJywgJy1waCcsICc3LjQnLCAnLW50JywgJy1tYScsICc1MDAnLCAnLWltYWUnLCAnPGluZmlsZS5tYWU+JywgJy1vbWFlJywgJzxvdXRmaWxlLm1hZT4n

> <r_lp_tautomer_probability>
1

> <r_epik_Ionization_Penalty>
  0.0158

> <r_epik_Ionization_Penalty_Charging>
  0.0000

> <r_epik_Ionization_Penalty_Neutral>
  0.0158

> <r_epik_State_Penalty>
  0.0000

> <r_epik_Charging_Adjusted_Penalty>
8.23416745038905e-06

> <i_epik_Tot_Q>
-1

> <i_epik_Tot_abs_Q>
1

> <s_epik_Chemistry_Notes>
This compound contains an acetal/aminal-like group ( X-CH(R)-Y where X, Y are N, S, or O) that may be acid/base labile, releasing an aldehyde.

> <s_m_subgroup_title>
glide-dock_Nicaido_neutral_pv1

> <s_m_subgroupid>
glide-dock_Nicaido_neutral_pv1

> <b_m_subgroup_collapsed>
0

$$$$
Aztreonam
                    3D
 Schrodinger Suite 2022-2.
 43 44  0  0  1  0            999 V2000
  -25.8740  -21.5565  -19.9268 C   0  0  0  0  0  0
  -26.4623  -22.1208  -18.6262 C   0  0  1  0  0  0
  -27.9632  -22.4648  -18.4898 C   0  0  2  0  0  0
  -27.5137  -23.9433  -18.4080 C   0  0  0  0  0  0
  -26.1944  -23.5414  -18.4140 N   0  0  0  0  0  0
  -24.7091  -24.2430  -18.6893 S   0  0  0  0  0  0
  -24.6448  -24.3498  -20.1565 O   0  0  0  0  0  0
  -24.7687  -25.5495  -18.0135 O   0  5  0  0  0  0
  -23.7287  -23.3181  -18.1034 O   0  0  0  0  0  0
  -28.0465  -25.0334  -18.4071 O   0  0  0  0  0  0
  -28.7689  -22.0914  -19.6652 N   0  0  0  0  0  0
  -28.9191  -22.7185  -20.8503 C   0  0  0  0  0  0
  -29.8358  -21.9838  -21.7750 C   0  0  0  0  0  0
  -31.2667  -22.3752  -21.6553 C   0  0  0  0  0  0
  -31.6653  -23.6873  -21.7967 C   0  0  0  0  0  0
  -33.3855  -23.8767  -21.6131 S   0  0  0  0  0  0
  -33.4984  -22.1509  -21.3083 C   0  0  0  0  0  0
  -34.6991  -21.5494  -20.9865 N   0  0  0  0  0  0
  -32.3368  -21.5073  -21.4039 N   0  0  0  0  0  0
  -29.3471  -21.1442  -22.5904 N   0  0  0  0  0  0
  -30.2901  -20.6382  -23.5040 O   0  0  0  0  0  0
  -29.6478  -20.2270  -24.7215 C   0  0  0  0  0  0
  -29.1424  -21.4658  -25.5173 C   0  0  0  0  0  0
  -29.8797  -21.9477  -26.4132 O   0  5  0  0  0  0
  -28.0237  -21.9529  -25.2220 O   0  0  0  0  0  0
  -30.7663  -19.5086  -25.5059 C   0  0  0  0  0  0
  -28.4906  -19.2256  -24.4690 C   0  0  0  0  0  0
  -28.3710  -23.7689  -21.2018 O   0  0  0  0  0  0
  -26.2548  -20.5541  -20.1233 H   0  0  0  0  0  0
  -24.7884  -21.4799  -19.8718 H   0  0  0  0  0  0
  -26.1130  -22.1710  -20.7937 H   0  0  0  0  0  0
  -26.1167  -21.5659  -17.7510 H   0  0  0  0  0  0
  -28.3829  -22.0798  -17.5587 H   0  0  0  0  0  0
  -29.3687  -21.2837  -19.5154 H   0  0  0  0  0  0
  -31.0540  -24.5548  -21.9856 H   0  0  0  0  0  0
  -34.6291  -20.6679  -20.4883 H   0  0  0  0  0  0
  -35.4373  -22.1470  -20.6463 H   0  0  0  0  0  0
  -30.4163  -19.1649  -26.4797 H   0  0  0  0  0  0
  -31.6295  -20.1572  -25.6623 H   0  0  0  0  0  0
  -31.1172  -18.6327  -24.9602 H   0  0  0  0  0  0
  -28.1018  -18.8246  -25.4056 H   0  0  0  0  0  0
  -28.8293  -18.3791  -23.8715 H   0  0  0  0  0  0
  -27.6474  -19.6731  -23.9418 H   0  0  0  0  0  0
  1  2  1  0  0  0
  1 29  1  0  0  0
  1 30  1  0  0  0
  1 31  1  0  0  0
  2  5  1  0  0  0
  2  3  1  0  0  0
  2 32  1  0  0  0
  3  4  1  0  0  0
  3 11  1  0  0  0
  3 33  1  0  0  0
  4  5  1  0  0  0
  4 10  2  0  0  0
  5  6  1  0  0  0
  6  7  2  0  0  0
  6  8  1  0  0  0
  6  9  2  0  0  0
 11 12  1  0  0  0
 11 34  1  0  0  0
 12 13  1  0  0  0
 12 28  2  0  0  0
 13 14  1  0  0  0
 13 20  2  3  0  0
 14 19  1  0  0  0
 14 15  2  0  0  0
 15 16  1  0  0  0
 15 35  1  0  0  0
 16 17  1  0  0  0
 17 18  1  0  0  0
 17 19  2  0  0  0
 18 36  1  0  0  0
 18 37  1  0  0  0
 20 21  1  0  0  0
 21 22  1  0  0  0
 22 23  1  0  0  0
 22 26  1  0  0  0
 22 27  1  0  0  0
 23 24  1  0  0  0
 23 25  2  0  0  0
 26 38  1  0  0  0
 26 39  1  0  0  0
 26 40  1  0  0  0
 27 41  1  0  0  0
 27 42  1  0  0  0
 27 43  1  0  0  0
M  CHG  2   8  -1  24  -1
M  END
> <s_m_entry_id>
27285

> <s_m_entry_name>
data_maestro.21

> <s_m_Source_Path>
C:\Users\olshana1\Git\GramNeg-Accumulation\Gram Negative Permeation - OmpF

> <s_m_Source_File>
data_maestro.csv

> <i_m_Source_File_Index>
21

> <s_m_job_name>
glide-dock_Nicaido_neutral

> <s_i_glide_gridfile>
3POX-grid

> <i_i_glide_lignum>
26

> <i_i_glide_rotatable_bonds>
8

> <r_i_docking_score>
-5.79553229968217

> <r_i_glide_ligand_efficiency>
-0.20698329641722

> <r_i_glide_ligand_efficiency_sa>
-0.62852319456488

> <r_i_glide_ligand_efficiency_ln>
-1.33777901898906

> <r_i_glide_gscore>
-5.79553229968217

> <r_i_glide_lipo>
0

> <r_i_glide_hbond>
-1.33312458261801

> <r_i_glide_metal>
0

> <r_i_glide_rewards>
-0.333103622172844

> <r_i_glide_evdw>
-25.5771160125732

> <r_i_glide_ecoul>
-17.1919403076172

> <r_i_glide_erotb>
0.635830109179744

> <r_i_glide_esite>
-0.907487357299826

> <r_i_glide_emodel>
-69.2099859658642

> <r_i_glide_energy>
-42.7690563201904

> <r_i_glide_einternal>
17.538537979126

> <i_i_glide_confnum>
89

> <i_i_glide_posenum>
281

> <r_i_glide_eff_state_penalty>
0

> <r_glide_res:A132_vdw>
-1.72007241283505

> <r_glide_res:A132_coul>
-67.2729520582968

> <r_glide_res:A132_hbond>
-0.191359427114666

> <r_glide_res:A132_dist>
2.04082804218639

> <r_glide_res:A132_Eint>
-69.1843838982465

> <r_glide_res:A117_vdw>
-2.08918096248196

> <r_glide_res:A117_coul>
43.145169730041

> <r_glide_res:A117_hbond>
0

> <r_glide_res:A117_dist>
2.61118055811417

> <r_glide_res:A117_Eint>
41.055988767559

> <r_glide_res:A113_vdw>
-4.93875060592793

> <r_glide_res:A113_coul>
30.6155894884271

> <r_glide_res:A113_hbond>
-0.413830226367336

> <r_glide_res:A113_dist>
2.0771586003582

> <r_glide_res:A113_Eint>
25.2630086561319

> <r_glide_res:A82_vdw>
-1.81659592521717

> <r_glide_res:A82_coul>
-56.7463704658911

> <r_glide_res:A82_hbond>
0

> <r_glide_res:A82_dist>
2.47388955523426

> <r_glide_res:A82_Eint>
-58.5629663911083

> <r_glide_res:A42_vdw>
0.850572913595505

> <r_glide_res:A42_coul>
-74.6996485943369

> <r_glide_res:A42_hbond>
-0.373351461300052

> <r_glide_res:A42_dist>
1.83417445923384

> <r_glide_res:A42_Eint>
-74.2224271420414

> <r_glide_res:A16_vdw>
-0.555167797147363

> <r_glide_res:A16_coul>
-61.5933811221302

> <r_glide_res:A16_hbond>
-0.2

> <r_glide_res:A16_dist>
1.92389635286489

> <r_glide_res:A16_Eint>
-62.3485489192776

> <s_m_source_file>
ligprep_Nicaido_neutral.maegz

> <i_m_source_file_index>
21

> <i_lp_mmshare_version>
58128

> <i_f3d_flags>
0

> <s_lp_Force_Field>
S-OPLS

> <r_lp_Energy>
55.612973

> <b_lp_Chiralities_Consistent>
1

> <s_lp_Variant>
Aztreonam-1

> <s_epik_input>
Tz1TKD1PKShbT0hdKU4xQyg9TylbQ0BASF0oW0NAQEhdMVtDSDNdKVtOSF1DKD1PKS9DKGMyW2NIXXNjKG4yKVtOSDJdKT1OL09DKFtDSDNdKShbQ0gzXSlDKD1PKVtPSF0=

> <s_epik_cmdline>
J2VwaWtfcHl0aG9uJywgJy1waHQnLCAnMC4wJywgJy1waCcsICc3LjQnLCAnLW50JywgJy1tYScsICc1MDAnLCAnLWltYWUnLCAnPGluZmlsZS5tYWU+JywgJy1vbWFlJywgJzxvdXRmaWxlLm1hZT4n

> <r_lp_tautomer_probability>
1

> <r_epik_Ionization_Penalty>
  0.0004

> <r_epik_Ionization_Penalty_Charging>
  0.0000

> <r_epik_Ionization_Penalty_Neutral>
  0.0004

> <r_epik_State_Penalty>
  0.0000

> <r_epik_Charging_Adjusted_Penalty>
4.45674509427693e-05

> <i_epik_Tot_Q>
-2

> <i_epik_Tot_abs_Q>
2

> <s_epik_Chemistry_Notes>
This compound has an imine and may undergo hydrolysis.

> <s_m_subgroup_title>
glide-dock_Nicaido_neutral_pv1

> <s_m_subgroupid>
glide-dock_Nicaido_neutral_pv1

> <b_m_subgroup_collapsed>
0

$$$$
Imipenem
                    3D
 Schrodinger Suite 2022-2.
 37 38  0  0  1  0            999 V2000
  -22.2157  -19.2132  -27.0180 C   0  0  0  0  0  0
  -22.1403  -20.7351  -26.8274 C   0  0  2  0  0  0
  -22.8053  -21.1830  -25.5304 C   0  0  1  0  0  0
  -24.3242  -20.9711  -25.3503 C   0  0  2  0  0  0
  -24.9703  -20.2394  -24.1638 C   0  0  0  0  0  0
  -25.4279  -21.3649  -23.2679 C   0  0  0  0  0  0
  -26.2326  -21.0654  -21.7141 S   0  0  0  0  0  0
  -26.6737  -19.3136  -21.7649 C   0  0  0  0  0  0
  -27.3862  -18.8677  -20.4837 C   0  0  0  0  0  0
  -28.7689  -19.3556  -20.4125 N   0  3  0  0  0  0
  -29.8534  -18.9054  -21.0734 C   0  0  0  0  0  0
  -29.8255  -17.9504  -22.0146 N   0  0  0  0  0  0
  -25.0459  -22.5530  -23.7443 C   0  0  0  0  0  0
  -24.3633  -22.3652  -24.9387 N   0  0  0  0  0  0
  -23.1469  -22.6990  -25.4935 C   0  0  0  0  0  0
  -22.6535  -23.7533  -25.8364 O   0  0  0  0  0  0
  -25.1688  -23.9514  -23.0699 C   0  0  0  0  0  0
  -24.2879  -24.7993  -23.3408 O   0  5  0  0  0  0
  -26.2144  -24.1611  -22.4127 O   0  0  0  0  0  0
  -20.7891  -21.1492  -26.8142 O   0  0  0  0  0  0
  -23.2385  -18.8500  -26.9132 H   0  0  0  0  0  0
  -21.8830  -18.9210  -28.0128 H   0  0  0  0  0  0
  -21.6057  -18.6871  -26.2830 H   0  0  0  0  0  0
  -22.6239  -21.2109  -27.6818 H   0  0  0  0  0  0
  -22.2648  -20.8419  -24.6450 H   0  0  0  0  0  0
  -24.8536  -20.8418  -26.2979 H   0  0  0  0  0  0
  -24.2533  -19.6031  -23.6444 H   0  0  0  0  0  0
  -25.8090  -19.6219  -24.4853 H   0  0  0  0  0  0
  -25.7668  -18.7255  -21.9031 H   0  0  0  0  0  0
  -27.3061  -19.1497  -22.6373 H   0  0  0  0  0  0
  -26.8398  -19.2195  -19.6084 H   0  0  0  0  0  0
  -27.3987  -17.7838  -20.4138 H   0  0  0  0  0  0
  -30.8163  -19.3300  -20.8138 H   0  0  0  0  0  0
  -28.9361  -17.5208  -22.2524 H   0  0  0  0  0  0
  -30.6830  -17.5156  -22.3324 H   0  0  0  0  0  0
  -20.7537  -22.0518  -27.1084 H   0  0  0  0  0  0
  -28.9931  -19.9542  -19.6231 H   0  0  0  0  0  0
  1  2  1  0  0  0
  1 21  1  0  0  0
  1 22  1  0  0  0
  1 23  1  0  0  0
  2  3  1  0  0  0
  2 20  1  0  0  0
  2 24  1  0  0  0
  3 15  1  0  0  0
  3  4  1  0  0  0
  3 25  1  0  0  0
  4 14  1  0  0  0
  4  5  1  0  0  0
  4 26  1  0  0  0
  5  6  1  0  0  0
  5 27  1  0  0  0
  5 28  1  0  0  0
  6  7  1  0  0  0
  6 13  2  0  0  0
  7  8  1  0  0  0
  8  9  1  0  0  0
  8 29  1  0  0  0
  8 30  1  0  0  0
  9 10  1  0  0  0
  9 31  1  0  0  0
  9 32  1  0  0  0
 10 11  2  3  0  0
 10 37  1  0  0  0
 11 12  1  0  0  0
 11 33  1  0  0  0
 12 34  1  0  0  0
 12 35  1  0  0  0
 13 14  1  0  0  0
 13 17  1  0  0  0
 14 15  1  0  0  0
 15 16  2  0  0  0
 17 18  1  0  0  0
 17 19  2  0  0  0
 20 36  1  0  0  0
M  CHG  2  10   1  18  -1
M  END
> <s_m_entry_id>
27286

> <s_m_entry_name>
data_maestro.12

> <s_m_Source_Path>
C:\Users\olshana1\Git\GramNeg-Accumulation\Gram Negative Permeation - OmpF

> <s_m_Source_File>
data_maestro.csv

> <i_m_Source_File_Index>
12

> <s_m_job_name>
glide-dock_Nicaido_neutral

> <s_i_glide_gridfile>
3POX-grid

> <i_i_glide_lignum>
17

> <i_i_glide_rotatable_bonds>
7

> <r_i_docking_score>
-5.79322756277369

> <r_i_glide_ligand_efficiency>
-0.289661378138685

> <r_i_glide_ligand_efficiency_sa>
-0.786261946881661

> <r_i_glide_ligand_efficiency_ln>
-1.44985378552926

> <r_i_glide_gscore>
-5.79322756277369

> <r_i_glide_lipo>
-0.222298464323177

> <r_i_glide_hbond>
-0.3319475449076

> <r_i_glide_metal>
0

> <r_i_glide_rewards>
-1.92832779213463

> <r_i_glide_evdw>
-16.9545135498047

> <r_i_glide_ecoul>
-20.2374801635742

> <r_i_glide_erotb>
1.02473259195513

> <r_i_glide_esite>
-0.452038651337048

> <r_i_glide_emodel>
-68.1173620711756

> <r_i_glide_energy>
-37.1919937133789

> <r_i_glide_einternal>
5.22940731048584

> <i_i_glide_confnum>
45

> <i_i_glide_posenum>
299

> <r_i_glide_eff_state_penalty>
0

> <r_glide_res:A132_vdw>
-0.391815520969085

> <r_glide_res:A132_coul>
-23.5817866146272

> <r_glide_res:A132_hbond>
-0.0760344229207338

> <r_glide_res:A132_dist>
2.18301517889293

> <r_glide_res:A132_Eint>
-24.049636558517

> <r_glide_res:A117_vdw>
-1.82778644134174

> <r_glide_res:A117_coul>
-15.7605686812597

> <r_glide_res:A117_hbond>
0

> <r_glide_res:A117_dist>
1.86633162146125

> <r_glide_res:A117_Eint>
-17.5883551226014

> <r_glide_res:A113_vdw>
0.107583813753636

> <r_glide_res:A113_coul>
-25.6719249559432

> <r_glide_res:A113_hbond>
-0.0816047870544634

> <r_glide_res:A113_dist>
2.12742061304278

> <r_glide_res:A113_Eint>
-25.645945929244

> <r_glide_res:A82_vdw>
1.03693789354827

> <r_glide_res:A82_coul>
-26.8444561735238

> <r_glide_res:A82_hbond>
-0.174308334932403

> <r_glide_res:A82_dist>
1.91930125446529

> <r_glide_res:A82_Eint>
-25.9818266149079

> <r_glide_res:A42_vdw>
-1.6587668578301

> <r_glide_res:A42_coul>
-13.4693758883481

> <r_glide_res:A42_hbond>
0

> <r_glide_res:A42_dist>
2.7499988290033

> <r_glide_res:A42_Eint>
-15.1281427461782

> <r_glide_res:A16_vdw>
-0.137198019565804

> <r_glide_res:A16_coul>
1.7768811759164

> <r_glide_res:A16_hbond>
0

> <r_glide_res:A16_dist>
5.74490986680136

> <r_glide_res:A16_Eint>
1.63968315635059

> <s_m_source_file>
ligprep_Nicaido_neutral.maegz

> <i_m_source_file_index>
12

> <i_lp_mmshare_version>
58128

> <i_f3d_flags>
0

> <s_lp_Force_Field>
S-OPLS

> <r_lp_Energy>
22.988374

> <b_lp_Chiralities_Consistent>
1

> <s_lp_Variant>
Imipenem-2

> <s_epik_input>
W0NIM11bQ0BASF0oW09IXSlbQ0BASF0xQyg9TylOKFtDQEhdMTIpQyhDKD1PKVtPSF0pPUMoW0NIMl0yKVNbQ0gyXVtDSDJdL049W0NIXS9bTkgyXQ==

> <s_epik_cmdline>
J2VwaWtfcHl0aG9uJywgJy1waHQnLCAnMC4wJywgJy1waCcsICc3LjQnLCAnLW50JywgJy1tYScsICc1MDAnLCAnLWltYWUnLCAnPGluZmlsZS5tYWU+JywgJy1vbWFlJywgJzxvdXRmaWxlLm1hZT4n

> <r_lp_tautomer_probability>
1

> <r_epik_Ionization_Penalty>
  0.0001

> <r_epik_Ionization_Penalty_Charging>
  0.0001

> <r_epik_Ionization_Penalty_Neutral>
  0.0000

> <r_epik_State_Penalty>
  0.0000

> <r_epik_Charging_Adjusted_Penalty>
9.5675940864495e-05

> <i_epik_Tot_Q>
0

> <i_epik_Tot_abs_Q>
2

> <s_epik_Chemistry_Notes>
This compound has an imine and may undergo hydrolysis.

> <s_m_subgroup_title>
glide-dock_Nicaido_neutral_pv1

> <s_m_subgroupid>
glide-dock_Nicaido_neutral_pv1

> <b_m_subgroup_collapsed>
0

$$$$
Moxalactam
                    3D
 Schrodinger Suite 2022-2.
 54 57  0  0  1  0            999 V2000
  -33.6477  -22.6644  -20.7955 C   0  0  0  0  0  0
  -32.9471  -23.1240  -21.9779 N   0  0  0  0  0  0
  -31.8025  -23.8035  -22.1310 C   0  0  0  0  0  0
  -30.7691  -24.3472  -20.8098 S   0  0  0  0  0  0
  -29.6679  -22.9031  -20.5600 C   0  0  0  0  0  0
  -29.6753  -21.8761  -21.6824 C   0  0  0  0  0  0
  -28.9894  -21.9872  -22.8466 C   0  0  0  0  0  0
  -28.0189  -23.1496  -23.2485 C   0  0  0  0  0  0
  -27.7639  -24.0495  -22.4134 O   0  5  0  0  0  0
  -27.5688  -23.1272  -24.4133 O   0  0  0  0  0  0
  -29.2016  -20.9855  -23.7978 N   0  0  0  0  0  0
  -29.7291  -19.7031  -23.3717 C   0  0  2  0  0  0
  -30.9264  -20.0083  -22.6726 O   0  0  0  0  0  0
  -30.5875  -20.6641  -21.4501 C   0  0  0  0  0  0
  -29.7953  -19.3192  -24.8556 C   0  0  1  0  0  0
  -29.4719  -20.8129  -25.1518 C   0  0  0  0  0  0
  -29.5442  -21.5776  -26.0936 O   0  0  0  0  0  0
  -31.1494  -18.9221  -25.2160 N   0  0  0  0  0  0
  -31.6083  -18.6751  -26.4502 C   0  0  0  0  0  0
  -33.1492  -18.6702  -26.5816 C   0  0  2  0  0  0
  -33.5650  -19.1993  -27.9796 C   0  0  0  0  0  0
  -33.1711  -20.3512  -28.2806 O   0  5  0  0  0  0
  -34.2824  -18.4931  -28.7241 O   0  0  0  0  0  0
  -33.7280  -17.2951  -26.2523 C   0  0  0  0  0  0
  -34.5393  -17.1501  -25.1055 C   0  0  0  0  0  0
  -35.0552  -15.8900  -24.7537 C   0  0  0  0  0  0
  -34.7690  -14.7691  -25.5523 C   0  0  0  0  0  0
  -35.2585  -13.5496  -25.1966 O   0  0  0  0  0  0
  -33.9691  -14.9047  -26.7036 C   0  0  0  0  0  0
  -33.4378  -16.1606  -27.0444 C   0  0  0  0  0  0
  -30.8597  -18.5018  -27.4159 O   0  0  0  0  0  0
  -28.7720  -18.3812  -25.2223 O   0  0  0  0  0  0
  -27.4043  -18.7898  -25.0844 C   0  0  0  0  0  0
  -31.5691  -24.0442  -23.4157 N   0  0  0  0  0  0
  -32.6244  -23.4330  -24.0639 N   0  0  0  0  0  0
  -33.4499  -22.8911  -23.2154 N   0  0  0  0  0  0
  -32.9340  -22.4099  -20.0135 H   0  0  0  0  0  0
  -34.3069  -23.4498  -20.4239 H   0  0  0  0  0  0
  -34.2378  -21.7768  -21.0252 H   0  0  0  0  0  0
  -29.9487  -22.4075  -19.6415 H   0  0  0  0  0  0
  -28.6583  -23.2472  -20.3477 H   0  0  0  0  0  0
  -29.0222  -19.1050  -22.7901 H   0  0  0  0  0  0
  -31.5010  -20.9462  -20.9343 H   0  0  0  0  0  0
  -30.0604  -19.9562  -20.8135 H   0  0  0  0  0  0
  -31.8239  -19.0036  -24.4682 H   0  0  0  0  0  0
  -33.5471  -19.3928  -25.8673 H   0  0  0  0  0  0
  -34.7597  -18.0025  -24.4797 H   0  0  0  0  0  0
  -35.6609  -15.7831  -23.8652 H   0  0  0  0  0  0
  -34.9403  -12.8483  -25.7629 H   0  0  0  0  0  0
  -33.7369  -14.0453  -27.3136 H   0  0  0  0  0  0
  -32.8080  -16.2551  -27.9172 H   0  0  0  0  0  0
  -26.7799  -17.9496  -24.8236 H   0  0  0  0  0  0
  -27.0350  -19.2268  -26.0119 H   0  0  0  0  0  0
  -27.2097  -19.4911  -24.2755 H   0  0  0  0  0  0
  1  2  1  0  0  0
  1 37  1  0  0  0
  1 38  1  0  0  0
  1 39  1  0  0  0
  2 36  1  0  0  0
  2  3  1  0  0  0
  3  4  1  0  0  0
  3 34  2  0  0  0
  4  5  1  0  0  0
  5  6  1  0  0  0
  5 40  1  0  0  0
  5 41  1  0  0  0
  6 14  1  0  0  0
  6  7  2  0  0  0
  7  8  1  0  0  0
  7 11  1  0  0  0
  8  9  1  0  0  0
  8 10  2  0  0  0
 11 16  1  0  0  0
 11 12  1  0  0  0
 12 13  1  0  0  0
 12 15  1  0  0  0
 12 42  1  0  0  0
 13 14  1  0  0  0
 14 43  1  0  0  0
 14 44  1  0  0  0
 15 16  1  0  0  0
 15 18  1  0  0  0
 15 32  1  0  0  0
 16 17  2  0  0  0
 18 19  1  0  0  0
 18 45  1  0  0  0
 19 20  1  0  0  0
 19 31  2  0  0  0
 20 21  1  0  0  0
 20 24  1  0  0  0
 20 46  1  0  0  0
 21 22  1  0  0  0
 21 23  2  0  0  0
 24 30  1  0  0  0
 24 25  2  0  0  0
 25 26  1  0  0  0
 25 47  1  0  0  0
 26 27  2  0  0  0
 26 48  1  0  0  0
 27 28  1  0  0  0
 27 29  1  0  0  0
 28 49  1  0  0  0
 29 30  2  0  0  0
 29 50  1  0  0  0
 30 51  1  0  0  0
 32 33  1  0  0  0
 33 52  1  0  0  0
 33 53  1  0  0  0
 33 54  1  0  0  0
 34 35  1  0  0  0
 35 36  2  0  0  0
M  CHG  2   9  -1  22  -1
M  END
> <s_m_entry_id>
27287

> <s_m_entry_name>
data_maestro.20

> <s_m_Source_Path>
C:\Users\olshana1\Git\GramNeg-Accumulation\Gram Negative Permeation - OmpF

> <s_m_Source_File>
data_maestro.csv

> <i_m_Source_File_Index>
20

> <s_m_job_name>
glide-dock_Nicaido_neutral

> <s_i_glide_gridfile>
3POX-grid

> <i_i_glide_lignum>
25

> <i_i_glide_rotatable_bonds>
11

> <r_i_docking_score>
-5.78183870894343

> <r_i_glide_ligand_efficiency>
-0.160606630803984

> <r_i_glide_ligand_efficiency_sa>
-0.530311409971374

> <r_i_glide_ligand_efficiency_ln>
-1.26144099906151

> <r_i_glide_gscore>
-5.78183870894343

> <r_i_glide_lipo>
-0.345952845408722

> <r_i_glide_hbond>
-1.09114104543267

> <r_i_glide_metal>
0

> <r_i_glide_rewards>
0.0206817897376233

> <r_i_glide_evdw>
-28.6470699310303

> <r_i_glide_ecoul>
-18.6660633087158

> <r_i_glide_erotb>
0.534860792752126

> <r_i_glide_esite>
-0.668024407732902

> <r_i_glide_emodel>
-82.1365039703888

> <r_i_glide_energy>
-47.3131332397461

> <r_i_glide_einternal>
11.41579246521

> <i_i_glide_confnum>
11

> <i_i_glide_posenum>
2

> <r_i_glide_eff_state_penalty>
0

> <r_glide_res:A132_vdw>
-1.66484577606304

> <r_glide_res:A132_coul>
-48.9839579847827

> <r_glide_res:A132_hbond>
0

> <r_glide_res:A132_dist>
2.49249591758246

> <r_glide_res:A132_Eint>
-50.6488037608458

> <r_glide_res:A117_vdw>
-3.40597894716457

> <r_glide_res:A117_coul>
41.498112783842

> <r_glide_res:A117_hbond>
0

> <r_glide_res:A117_dist>
2.3239464118907

> <r_glide_res:A117_Eint>
38.0921338366774

> <r_glide_res:A113_vdw>
-1.38239904887241

> <r_glide_res:A113_coul>
27.4561039937766

> <r_glide_res:A113_hbond>
0

> <r_glide_res:A113_dist>
2.02126653198511

> <r_glide_res:A113_Eint>
26.0737049449041

> <r_glide_res:A82_vdw>
-0.197262747464449

> <r_glide_res:A82_coul>
-67.766078159473

> <r_glide_res:A82_hbond>
-0.236781441189566

> <r_glide_res:A82_dist>
1.82110269842048

> <r_glide_res:A82_Eint>
-68.200122348127

> <r_glide_res:A42_vdw>
-0.174904624699334

> <r_glide_res:A42_coul>
-71.0557719048676

> <r_glide_res:A42_hbond>
-0.223713717795085

> <r_glide_res:A42_dist>
1.88638873390361

> <r_glide_res:A42_Eint>
-71.4543902473621

> <r_glide_res:A16_vdw>
2.32349944412378

> <r_glide_res:A16_coul>
-91.8899797165597

> <r_glide_res:A16_hbond>
-0.310645886448016

> <r_glide_res:A16_dist>
1.67404933075076

> <r_glide_res:A16_Eint>
-89.8771261588839

> <s_m_source_file>
ligprep_Nicaido_neutral.maegz

> <i_m_source_file_index>
20

> <i_lp_mmshare_version>
58128

> <i_f3d_flags>
0

> <s_lp_Force_Field>
S-OPLS

> <r_lp_Energy>
52.146636

> <b_lp_Chiralities_Consistent>
1

> <s_lp_Variant>
Moxalactam-1

> <s_epik_input>
bjFubmMobjFbQ0gzXSlTW0NIMl1DKD1DMkMoPU8pW09IXSlbQ0gyXU9bQ0BASF0oTjIzKVtDQF0oQzM9TykoT1tDSDNdKVtOSF1DKD1PKVtDQEhdKEMoPU8pW09IXSljNFtjSF1bY0hdYyhbT0hdKVtjSF1bY0hdNA==

> <s_epik_cmdline>
J2VwaWtfcHl0aG9uJywgJy1waHQnLCAnMC4wJywgJy1waCcsICc3LjQnLCAnLW50JywgJy1tYScsICc1MDAnLCAnLWltYWUnLCAnPGluZmlsZS5tYWU+JywgJy1vbWFlJywgJzxvdXRmaWxlLm1hZT4n

> <r_lp_tautomer_probability>
1

> <r_epik_Ionization_Penalty>
  0.0029

> <r_epik_Ionization_Penalty_Charging>
  0.0001

> <r_epik_Ionization_Penalty_Neutral>
  0.0029

> <r_epik_State_Penalty>
  0.0000

> <r_epik_Charging_Adjusted_Penalty>
5.78268703870383e-05

> <i_epik_Tot_Q>
-2

> <i_epik_Tot_abs_Q>
2

> <s_epik_Chemistry_Notes>
This compound contains an acetal/aminal-like group ( X-CH(R)-Y where X, Y are N, S, or O) that may be acid/base labile, releasing an aldehyde.

> <s_m_subgroup_title>
glide-dock_Nicaido_neutral_pv1

> <s_m_subgroupid>
glide-dock_Nicaido_neutral_pv1

> <b_m_subgroup_collapsed>
0

$$$$
SCE-796
                    3D
 Schrodinger Suite 2022-2.
 54 57  0  0  1  0            999 V2000
  -27.3457  -21.1488  -25.6134 O   0  0  0  0  0  0
  -27.9699  -20.3457  -24.9524 C   0  0  0  0  0  0
  -28.1534  -18.8016  -24.8629 C   0  0  2  0  0  0
  -28.7378  -19.0977  -23.4626 C   0  0  2  0  0  0
  -28.8096  -20.4967  -23.8602 N   0  0  0  0  0  0
  -29.4966  -21.4987  -23.1392 C   0  0  0  0  0  0
  -29.3099  -22.9699  -23.6696 C   0  0  0  0  0  0
  -28.9821  -23.8499  -22.8345 O   0  5  0  0  0  0
  -29.5154  -23.1494  -24.8907 O   0  0  0  0  0  0
  -30.3776  -21.1886  -22.1483 C   0  0  0  0  0  0
  -30.5632  -19.7677  -21.6126 C   0  0  0  0  0  0
  -30.3659  -18.5211  -22.8957 S   0  0  0  0  0  0
  -31.3151  -22.2029  -21.4929 C   0  0  0  0  0  0
  -32.7086  -21.8689  -21.8577 N   0  3  0  0  0  0
  -33.0667  -21.8518  -23.1683 C   0  0  0  0  0  0
  -34.3650  -21.4590  -23.5554 C   0  0  0  0  0  0
  -35.3075  -21.0944  -22.5686 C   0  0  0  0  0  0
  -34.9078  -21.1501  -21.2137 C   0  0  0  0  0  0
  -33.5972  -21.5514  -20.8857 C   0  0  0  0  0  0
  -36.6704  -20.6017  -22.9684 C   0  0  0  0  0  0
  -37.6320  -20.6782  -22.0473 N   0  0  0  0  0  0
  -36.8889  -20.1898  -24.1046 O   0  0  0  0  0  0
  -29.1008  -18.1266  -25.7812 N   0  0  0  0  0  0
  -30.2115  -18.5694  -26.4021 C   0  0  0  0  0  0
  -31.0813  -17.4858  -27.1034 C   0  0  2  0  0  0
  -32.4050  -17.1501  -26.3777 C   0  0  0  0  0  0
  -32.9918  -17.9901  -25.3972 C   0  0  0  0  0  0
  -34.1902  -17.6215  -24.7547 C   0  0  0  0  0  0
  -34.8267  -16.4120  -25.0849 C   0  0  0  0  0  0
  -34.2680  -15.5740  -26.0681 C   0  0  0  0  0  0
  -33.0690  -15.9448  -26.7076 C   0  0  0  0  0  0
  -31.3472  -17.9498  -28.5536 C   0  0  0  0  0  0
  -32.5206  -17.9875  -28.9866 O   0  5  0  0  0  0
  -30.3678  -18.3495  -29.2266 O   0  0  0  0  0  0
  -30.5522  -19.7568  -26.4051 O   0  0  0  0  0  0
  -27.2097  -18.2610  -24.7859 H   0  0  0  0  0  0
  -27.9999  -18.9883  -22.6652 H   0  0  0  0  0  0
  -31.5459  -19.6200  -21.1672 H   0  0  0  0  0  0
  -29.8359  -19.5923  -20.8178 H   0  0  0  0  0  0
  -31.1640  -23.2394  -21.7855 H   0  0  0  0  0  0
  -31.2002  -22.1552  -20.4139 H   0  0  0  0  0  0
  -32.3000  -22.1175  -23.8817 H   0  0  0  0  0  0
  -34.6255  -21.4140  -24.6039 H   0  0  0  0  0  0
  -35.5659  -20.8443  -20.4133 H   0  0  0  0  0  0
  -33.2368  -21.5771  -19.8680 H   0  0  0  0  0  0
  -37.4283  -21.0132  -21.1172 H   0  0  0  0  0  0
  -38.5617  -20.3660  -22.2837 H   0  0  0  0  0  0
  -28.9026  -17.1437  -25.9172 H   0  0  0  0  0  0
  -30.4979  -16.5702  -27.2038 H   0  0  0  0  0  0
  -32.5363  -18.9249  -25.1092 H   0  0  0  0  0  0
  -34.6201  -18.2684  -24.0051 H   0  0  0  0  0  0
  -35.7413  -16.1283  -24.5852 H   0  0  0  0  0  0
  -34.7507  -14.6408  -26.3245 H   0  0  0  0  0  0
  -32.6430  -15.2900  -27.4547 H   0  0  0  0  0  0
  1  2  2  0  0  0
  2  5  1  0  0  0
  2  3  1  0  0  0
  3  4  1  0  0  0
  3 23  1  0  0  0
  3 36  1  0  0  0
  4 12  1  0  0  0
  4  5  1  0  0  0
  4 37  1  0  0  0
  5  6  1  0  0  0
  6  7  1  0  0  0
  6 10  2  0  0  0
  7  8  1  0  0  0
  7  9  2  0  0  0
 10 11  1  0  0  0
 10 13  1  0  0  0
 11 12  1  0  0  0
 11 38  1  0  0  0
 11 39  1  0  0  0
 13 14  1  0  0  0
 13 40  1  0  0  0
 13 41  1  0  0  0
 14 19  1  0  0  0
 14 15  2  0  0  0
 15 16  1  0  0  0
 15 42  1  0  0  0
 16 17  2  0  0  0
 16 43  1  0  0  0
 17 18  1  0  0  0
 17 20  1  0  0  0
 18 19  2  0  0  0
 18 44  1  0  0  0
 19 45  1  0  0  0
 20 21  1  0  0  0
 20 22  2  0  0  0
 21 46  1  0  0  0
 21 47  1  0  0  0
 23 24  1  0  0  0
 23 48  1  0  0  0
 24 25  1  0  0  0
 24 35  2  0  0  0
 25 26  1  0  0  0
 25 32  1  0  0  0
 25 49  1  0  0  0
 26 31  1  0  0  0
 26 27  2  0  0  0
 27 28  1  0  0  0
 27 50  1  0  0  0
 28 29  2  0  0  0
 28 51  1  0  0  0
 29 30  1  0  0  0
 29 52  1  0  0  0
 30 31  2  0  0  0
 30 53  1  0  0  0
 31 54  1  0  0  0
 32 33  1  0  0  0
 32 34  2  0  0  0
M  CHG  3   8  -1  14   1  33  -1
M  END
> <s_m_entry_id>
27288

> <s_m_entry_name>
data_maestro.28

> <s_m_Source_Path>
C:\Users\olshana1\Git\GramNeg-Accumulation\Gram Negative Permeation - OmpF

> <s_m_Source_File>
data_maestro.csv

> <i_m_Source_File_Index>
28

> <s_m_job_name>
glide-dock_Nicaido_neutral

> <s_i_glide_gridfile>
3POX-grid

> <i_i_glide_lignum>
35

> <i_i_glide_rotatable_bonds>
9

> <r_i_docking_score>
-5.7694508101501

> <r_i_glide_ligand_efficiency>
-0.164841451718574

> <r_i_glide_ligand_efficiency_sa>
-0.539207318600184

> <r_i_glide_ligand_efficiency_ln>
-1.26652249888974

> <r_i_glide_gscore>
-5.7694508101501

> <r_i_glide_lipo>
-0.116811574362118

> <r_i_glide_hbond>
-0.835222245397964

> <r_i_glide_metal>
0

> <r_i_glide_rewards>
-0.0281929316792219

> <r_i_glide_evdw>
-32.197811126709

> <r_i_glide_ecoul>
-20.3333396911621

> <r_i_glide_erotb>
0.415177540389138

> <r_i_glide_esite>
-0.544510089090167

> <r_i_glide_emodel>
-85.9572259347003

> <r_i_glide_energy>
-52.5311508178711

> <r_i_glide_einternal>
11.2159614562988

> <i_i_glide_confnum>
19

> <i_i_glide_posenum>
192

> <r_i_glide_eff_state_penalty>
0

> <r_glide_res:A132_vdw>
-0.761963869136893

> <r_glide_res:A132_coul>
-22.4944885937203

> <r_glide_res:A132_hbond>
0

> <r_glide_res:A132_dist>
3.07233937365868

> <r_glide_res:A132_Eint>
-23.2564524628571

> <r_glide_res:A117_vdw>
-4.99271110868562

> <r_glide_res:A117_coul>
20.5041977257328

> <r_glide_res:A117_hbond>
0

> <r_glide_res:A117_dist>
1.94088959861491

> <r_glide_res:A117_Eint>
15.5114866170471

> <r_glide_res:A113_vdw>
-2.78989776394861

> <r_glide_res:A113_coul>
-6.64070020504628

> <r_glide_res:A113_hbond>
0

> <r_glide_res:A113_dist>
2.2729623771965

> <r_glide_res:A113_Eint>
-9.43059796899488

> <r_glide_res:A82_vdw>
-1.1098467678469

> <r_glide_res:A82_coul>
-40.6414066252988

> <r_glide_res:A82_hbond>
-0.22832130538967

> <r_glide_res:A82_dist>
2.01590830731499

> <r_glide_res:A82_Eint>
-41.9795746985354

> <r_glide_res:A42_vdw>
-0.352637945440572

> <r_glide_res:A42_coul>
-53.1528004441485

> <r_glide_res:A42_hbond>
-0.359977573390043

> <r_glide_res:A42_dist>
1.82793475747093

> <r_glide_res:A42_Eint>
-53.8654159629791

> <r_glide_res:A16_vdw>
1.01919604154625

> <r_glide_res:A16_coul>
-72.8924505857679

> <r_glide_res:A16_hbond>
-0.246923366618251

> <r_glide_res:A16_dist>
1.7819389119438

> <r_glide_res:A16_Eint>
-72.1201779108399

> <s_m_source_file>
ligprep_Nicaido_neutral.maegz

> <i_m_source_file_index>
28

> <i_lp_mmshare_version>
58128

> <i_f3d_flags>
0

> <s_lp_Force_Field>
S-OPLS

> <r_lp_Energy>
64.89814

> <b_lp_Chiralities_Consistent>
1

> <s_lp_Variant>
SCE-796-1

> <s_epik_input>
W2NIXTFbY0hdW2NIXVtjSF1bY0hdYzFbQ0BIXShDKD1PKVtPSF0pQyg9TylbTkhdW0NAQEhdMkMoPU8pTihbQ0BASF0yMylDKEMoPU8pW09IXSk9QyhbQ0gyXVMzKVtDSDJdW24rXTRbY0hdW2NIXWMoW2NIXVtjSF00KUMoPU8pW05IMl0=

> <s_epik_cmdline>
J2VwaWtfcHl0aG9uJywgJy1waHQnLCAnMC4wJywgJy1waCcsICc3LjQnLCAnLW50JywgJy1tYScsICc1MDAnLCAnLWltYWUnLCAnPGluZmlsZS5tYWU+JywgJy1vbWFlJywgJzxvdXRmaWxlLm1hZT4n

> <r_lp_tautomer_probability>
1

> <r_epik_Ionization_Penalty>
  0.0010

> <r_epik_Ionization_Penalty_Charging>
  0.0001

> <r_epik_Ionization_Penalty_Neutral>
  0.0010

> <r_epik_State_Penalty>
  0.0000

> <r_epik_Charging_Adjusted_Penalty>
5.79311335039239e-05

> <i_epik_Tot_Q>
-1

> <i_epik_Tot_abs_Q>
3

> <s_epik_Chemistry_Notes>
This compound contains an acetal/aminal-like group ( X-CH(R)-Y where X, Y are N, S, or O) that may be acid/base labile, releasing an aldehyde.

> <s_m_subgroup_title>
glide-dock_Nicaido_neutral_pv1

> <s_m_subgroupid>
glide-dock_Nicaido_neutral_pv1

> <b_m_subgroup_collapsed>
0

$$$$
Imipenem
                    3D
 Schrodinger Suite 2022-2.
 37 38  0  0  1  0            999 V2000
  -21.9879  -20.2514  -26.6716 C   0  0  0  0  0  0
  -22.9629  -19.5836  -25.6886 C   0  0  2  0  0  0
  -23.3536  -20.4724  -24.4927 C   0  0  1  0  0  0
  -24.5383  -20.1011  -23.5760 C   0  0  2  0  0  0
  -24.5745  -20.2594  -22.0474 C   0  0  0  0  0  0
  -25.6685  -21.2842  -21.8524 C   0  0  0  0  0  0
  -26.4372  -21.5732  -20.2794 S   0  0  0  0  0  0
  -26.5375  -19.9379  -19.4908 C   0  0  0  0  0  0
  -27.3600  -18.9299  -20.3115 C   0  0  0  0  0  0
  -28.7689  -19.3289  -20.4133 N   0  3  0  0  0  0
  -29.5593  -19.2551  -21.4950 C   0  0  0  0  0  0
  -29.1689  -18.7496  -22.6749 N   0  0  0  0  0  0
  -25.9445  -21.9079  -23.0016 C   0  0  0  0  0  0
  -25.1855  -21.3307  -24.0158 N   0  0  0  0  0  0
  -24.1632  -21.7481  -24.8516 C   0  0  0  0  0  0
  -23.9689  -22.7812  -25.4588 O   0  0  0  0  0  0
  -26.9945  -23.0248  -23.3014 C   0  0  0  0  0  0
  -27.1229  -23.9495  -22.4607 O   0  5  0  0  0  0
  -27.5690  -22.9515  -24.4134 O   0  0  0  0  0  0
  -24.0947  -19.1496  -26.4134 O   0  0  0  0  0  0
  -21.0837  -20.5849  -26.1625 H   0  0  0  0  0  0
  -21.6868  -19.5541  -27.4547 H   0  0  0  0  0  0
  -22.4352  -21.1168  -27.1618 H   0  0  0  0  0  0
  -22.4811  -18.6820  -25.3082 H   0  0  0  0  0  0
  -22.4811  -20.7086  -23.8829 H   0  0  0  0  0  0
  -25.1145  -19.2466  -23.9381 H   0  0  0  0  0  0
  -23.6361  -20.6536  -21.6567 H   0  0  0  0  0  0
  -24.7768  -19.3112  -21.5531 H   0  0  0  0  0  0
  -26.9811  -20.0661  -18.5032 H   0  0  0  0  0  0
  -25.5306  -19.5560  -19.3240 H   0  0  0  0  0  0
  -27.3139  -17.9496  -19.8411 H   0  0  0  0  0  0
  -26.9387  -18.8131  -21.3076 H   0  0  0  0  0  0
  -30.5755  -19.6214  -21.3971 H   0  0  0  0  0  0
  -28.3122  -18.1950  -22.7282 H   0  0  0  0  0  0
  -29.8133  -18.7230  -23.4506 H   0  0  0  0  0  0
  -24.3689  -18.2893  -26.0585 H   0  0  0  0  0  0
  -29.2672  -19.5547  -19.5480 H   0  0  0  0  0  0
  1  2  1  0  0  0
  1 21  1  0  0  0
  1 22  1  0  0  0
  1 23  1  0  0  0
  2  3  1  0  0  0
  2 20  1  0  0  0
  2 24  1  0  0  0
  3 15  1  0  0  0
  3  4  1  0  0  0
  3 25  1  0  0  0
  4 14  1  0  0  0
  4  5  1  0  0  0
  4 26  1  0  0  0
  5  6  1  0  0  0
  5 27  1  0  0  0
  5 28  1  0  0  0
  6  7  1  0  0  0
  6 13  2  0  0  0
  7  8  1  0  0  0
  8  9  1  0  0  0
  8 29  1  0  0  0
  8 30  1  0  0  0
  9 10  1  0  0  0
  9 31  1  0  0  0
  9 32  1  0  0  0
 10 11  2  3  0  0
 10 37  1  0  0  0
 11 12  1  0  0  0
 11 33  1  0  0  0
 12 34  1  0  0  0
 12 35  1  0  0  0
 13 14  1  0  0  0
 13 17  1  0  0  0
 14 15  1  0  0  0
 15 16  2  0  0  0
 17 18  1  0  0  0
 17 19  2  0  0  0
 20 36  1  0  0  0
M  CHG  2  10   1  18  -1
M  END
> <s_m_entry_id>
27289

> <s_m_entry_name>
data_maestro.12

> <s_m_Source_Path>
C:\Users\olshana1\Git\GramNeg-Accumulation\Gram Negative Permeation - OmpF

> <s_m_Source_File>
data_maestro.csv

> <i_m_Source_File_Index>
12

> <s_m_job_name>
glide-dock_Nicaido_neutral

> <s_i_glide_gridfile>
3POX-grid

> <i_i_glide_lignum>
17

> <i_i_glide_rotatable_bonds>
7

> <r_i_docking_score>
-5.75146063172623

> <r_i_glide_ligand_efficiency>
-0.287573031586311

> <r_i_glide_ligand_efficiency_sa>
-0.780593302216004

> <r_i_glide_ligand_efficiency_ln>
-1.43940090025366

> <r_i_glide_gscore>
-5.75146063172623

> <r_i_glide_lipo>
-0.153795683809989

> <r_i_glide_hbond>
-0.745639437756109

> <r_i_glide_metal>
0

> <r_i_glide_rewards>
-1.36808809090909

> <r_i_glide_evdw>
-12.5344934463501

> <r_i_glide_ecoul>
-22.8144283294678

> <r_i_glide_erotb>
1.02473259195513

> <r_i_glide_esite>
-0.459781089468494

> <r_i_glide_emodel>
-65.0045622728345

> <r_i_glide_energy>
-35.3489217758179

> <r_i_glide_einternal>
7.28524112701416

> <i_i_glide_confnum>
192

> <i_i_glide_posenum>
59

> <r_i_glide_eff_state_penalty>
0

> <r_glide_res:A132_vdw>
-1.21720557489649

> <r_glide_res:A132_coul>
-19.3786484595836

> <r_glide_res:A132_hbond>
0

> <r_glide_res:A132_dist>
2.63013226995305

> <r_glide_res:A132_Eint>
-20.5958540344801

> <r_glide_res:A117_vdw>
0.629009130662893

> <r_glide_res:A117_coul>
-21.3963074237506

> <r_glide_res:A117_hbond>
-0.16

> <r_glide_res:A117_dist>
1.64805070779672

> <r_glide_res:A117_Eint>
-20.9272982930877

> <r_glide_res:A113_vdw>
-0.361653061318061

> <r_glide_res:A113_coul>
-21.6071110557

> <r_glide_res:A113_hbond>
-0.196993958504315

> <r_glide_res:A113_dist>
1.87685013306612

> <r_glide_res:A113_Eint>
-22.1657580755223

> <r_glide_res:A82_vdw>
0.848416610465268

> <r_glide_res:A82_coul>
-30.8068671879032

> <r_glide_res:A82_hbond>
-0.20720414249448

> <r_glide_res:A82_dist>
1.76919372548725

> <r_glide_res:A82_Eint>
-30.1656547199324

> <r_glide_res:A42_vdw>
0.0663088970191623

> <r_glide_res:A42_coul>
-30.69765859457

> <r_glide_res:A42_hbond>
-0.181441336757313

> <r_glide_res:A42_dist>
1.88354238159617

> <r_glide_res:A42_Eint>
-30.8127910343081

> <r_glide_res:A16_vdw>
-0.178126891453655

> <r_glide_res:A16_coul>
-5.64428777679343

> <r_glide_res:A16_hbond>
0

> <r_glide_res:A16_dist>
4.93567491536465

> <r_glide_res:A16_Eint>
-5.82241466824709

> <s_m_source_file>
ligprep_Nicaido_neutral.maegz

> <i_m_source_file_index>
12

> <i_lp_mmshare_version>
58128

> <i_f3d_flags>
0

> <s_lp_Force_Field>
S-OPLS

> <r_lp_Energy>
22.988374

> <b_lp_Chiralities_Consistent>
1

> <s_lp_Variant>
Imipenem-2

> <s_epik_input>
W0NIM11bQ0BASF0oW09IXSlbQ0BASF0xQyg9TylOKFtDQEhdMTIpQyhDKD1PKVtPSF0pPUMoW0NIMl0yKVNbQ0gyXVtDSDJdL049W0NIXS9bTkgyXQ==

> <s_epik_cmdline>
J2VwaWtfcHl0aG9uJywgJy1waHQnLCAnMC4wJywgJy1waCcsICc3LjQnLCAnLW50JywgJy1tYScsICc1MDAnLCAnLWltYWUnLCAnPGluZmlsZS5tYWU+JywgJy1vbWFlJywgJzxvdXRmaWxlLm1hZT4n

> <r_lp_tautomer_probability>
1

> <r_epik_Ionization_Penalty>
  0.0001

> <r_epik_Ionization_Penalty_Charging>
  0.0001

> <r_epik_Ionization_Penalty_Neutral>
  0.0000

> <r_epik_State_Penalty>
  0.0000

> <r_epik_Charging_Adjusted_Penalty>
9.5675940864495e-05

> <i_epik_Tot_Q>
0

> <i_epik_Tot_abs_Q>
2

> <s_epik_Chemistry_Notes>
This compound has an imine and may undergo hydrolysis.

> <s_m_subgroup_title>
glide-dock_Nicaido_neutral_pv1

> <s_m_subgroupid>
glide-dock_Nicaido_neutral_pv1

> <b_m_subgroup_collapsed>
0

$$$$
Imipenem
                    3D
 Schrodinger Suite 2022-2.
 37 38  0  0  1  0            999 V2000
  -22.4093  -20.5323  -26.2963 C   0  0  0  0  0  0
  -23.3964  -19.8865  -25.3115 C   0  0  2  0  0  0
  -23.7031  -20.7495  -24.0729 C   0  0  1  0  0  0
  -24.9046  -20.4146  -23.1644 C   0  0  2  0  0  0
  -25.0152  -20.6838  -21.6543 C   0  0  0  0  0  0
  -26.2165  -21.5997  -21.5987 C   0  0  0  0  0  0
  -27.1676  -21.8630  -20.1242 S   0  0  0  0  0  0
  -27.2393  -20.2420  -19.3114 C   0  0  0  0  0  0
  -27.7170  -19.1134  -20.2446 C   0  0  0  0  0  0
  -29.1689  -19.0874  -20.4134 N   0  3  0  0  0  0
  -29.7737  -18.1838  -21.1989 C   0  0  0  0  0  0
  -31.1070  -18.0381  -21.2134 N   0  0  0  0  0  0
  -26.4514  -22.1362  -22.7995 C   0  0  0  0  0  0
  -25.5644  -21.5923  -23.7186 N   0  0  0  0  0  0
  -24.4438  -22.0783  -24.3689 C   0  0  0  0  0  0
  -24.1911  -23.1588  -24.8608 O   0  0  0  0  0  0
  -27.5495  -23.1496  -23.2342 C   0  0  0  0  0  0
  -27.9674  -23.0609  -24.4134 O   0  5  0  0  0  0
  -27.8382  -24.0518  -22.4134 O   0  0  0  0  0  0
  -24.5766  -19.5496  -26.0134 O   0  0  0  0  0  0
  -21.4729  -20.7898  -25.8012 H   0  0  0  0  0  0
  -22.1725  -19.8491  -27.1130 H   0  0  0  0  0  0
  -22.8153  -21.4419  -26.7400 H   0  0  0  0  0  0
  -22.9620  -18.9428  -24.9778 H   0  0  0  0  0  0
  -22.8113  -20.9019  -23.4647 H   0  0  0  0  0  0
  -25.4433  -19.5177  -23.4784 H   0  0  0  0  0  0
  -24.1416  -21.2113  -21.2702 H   0  0  0  0  0  0
  -25.1328  -19.7651  -21.0830 H   0  0  0  0  0  0
  -27.8991  -20.3333  -18.4469 H   0  0  0  0  0  0
  -26.2518  -20.0018  -18.9174 H   0  0  0  0  0  0
  -27.4239  -18.1537  -19.8208 H   0  0  0  0  0  0
  -27.2558  -19.1623  -21.2290 H   0  0  0  0  0  0
  -29.1694  -17.5496  -21.8342 H   0  0  0  0  0  0
  -31.6672  -18.6076  -20.5900 H   0  0  0  0  0  0
  -31.5272  -17.2704  -21.7303 H   0  0  0  0  0  0
  -24.7689  -18.6260  -25.8310 H   0  0  0  0  0  0
  -29.7530  -19.5496  -19.6976 H   0  0  0  0  0  0
  1  2  1  0  0  0
  1 21  1  0  0  0
  1 22  1  0  0  0
  1 23  1  0  0  0
  2  3  1  0  0  0
  2 20  1  0  0  0
  2 24  1  0  0  0
  3 15  1  0  0  0
  3  4  1  0  0  0
  3 25  1  0  0  0
  4 14  1  0  0  0
  4  5  1  0  0  0
  4 26  1  0  0  0
  5  6  1  0  0  0
  5 27  1  0  0  0
  5 28  1  0  0  0
  6  7  1  0  0  0
  6 13  2  0  0  0
  7  8  1  0  0  0
  8  9  1  0  0  0
  8 29  1  0  0  0
  8 30  1  0  0  0
  9 10  1  0  0  0
  9 31  1  0  0  0
  9 32  1  0  0  0
 10 11  2  3  0  0
 10 37  1  0  0  0
 11 12  1  0  0  0
 11 33  1  0  0  0
 12 34  1  0  0  0
 12 35  1  0  0  0
 13 14  1  0  0  0
 13 17  1  0  0  0
 14 15  1  0  0  0
 15 16  2  0  0  0
 17 18  1  0  0  0
 17 19  2  0  0  0
 20 36  1  0  0  0
M  CHG  2  10   1  18  -1
M  END
> <s_m_entry_id>
27290

> <s_m_entry_name>
data_maestro.12

> <s_m_Source_Path>
C:\Users\olshana1\Git\GramNeg-Accumulation\Gram Negative Permeation - OmpF

> <s_m_Source_File>
data_maestro.csv

> <i_m_Source_File_Index>
12

> <s_m_job_name>
glide-dock_Nicaido_neutral

> <s_i_glide_gridfile>
3POX-grid

> <i_i_glide_lignum>
16

> <i_i_glide_rotatable_bonds>
7

> <r_i_docking_score>
-5.74200169906305

> <r_i_glide_ligand_efficiency>
-0.287100084953152

> <r_i_glide_ligand_efficiency_sa>
-0.77930952754453

> <r_i_glide_ligand_efficiency_ln>
-1.43703364138455

> <r_i_glide_gscore>
-5.74200169906305

> <r_i_glide_lipo>
-0.0807426951810027

> <r_i_glide_hbond>
-0.732756689998456

> <r_i_glide_metal>
0

> <r_i_glide_rewards>
-1.36808809090909

> <r_i_glide_evdw>
-14.120023727417

> <r_i_glide_ecoul>
-22.8962535858154

> <r_i_glide_erotb>
1.02473259195513

> <r_i_glide_esite>
-0.444707590686462

> <r_i_glide_emodel>
-68.9752985940307

> <r_i_glide_energy>
-37.0162773132324

> <r_i_glide_einternal>
5.80121660232544

> <i_i_glide_confnum>
169

> <i_i_glide_posenum>
280

> <r_i_glide_eff_state_penalty>
0

> <r_glide_res:A132_vdw>
-1.3614854235764

> <r_glide_res:A132_coul>
-21.0555570337046

> <r_glide_res:A132_hbond>
0

> <r_glide_res:A132_dist>
2.55601088417718

> <r_glide_res:A132_Eint>
-22.417042457281

> <r_glide_res:A117_vdw>
-2.39695939528364

> <r_glide_res:A117_coul>
-12.6934677197885

> <r_glide_res:A117_hbond>
-0.16

> <r_glide_res:A117_dist>
1.87051319003699

> <r_glide_res:A117_Eint>
-15.2504271150721

> <r_glide_res:A113_vdw>
2.21085661632535

> <r_glide_res:A113_coul>
-27.0166100692157

> <r_glide_res:A113_hbond>
-0.202777290067937

> <r_glide_res:A113_dist>
1.57385668600561

> <r_glide_res:A113_Eint>
-25.0085307429582

> <r_glide_res:A82_vdw>
0.449038173281162

> <r_glide_res:A82_coul>
-33.7123548115155

> <r_glide_res:A82_hbond>
-0.208074390095697

> <r_glide_res:A82_dist>
1.8443303532886

> <r_glide_res:A82_Eint>
-33.47139102833

> <r_glide_res:A42_vdw>
-1.20369852666172

> <r_glide_res:A42_coul>
-32.0298646471451

> <r_glide_res:A42_hbond>
-0.161905009834822

> <r_glide_res:A42_dist>
2.06925559895057

> <r_glide_res:A42_Eint>
-33.3954681836416

> <r_glide_res:A16_vdw>
-0.181860295409726

> <r_glide_res:A16_coul>
-8.75534080970332

> <r_glide_res:A16_hbond>
0

> <r_glide_res:A16_dist>
4.77000040372364

> <r_glide_res:A16_Eint>
-8.93720110511305

> <s_m_source_file>
ligprep_Nicaido_neutral.maegz

> <i_m_source_file_index>
12

> <i_lp_mmshare_version>
58128

> <i_f3d_flags>
0

> <s_lp_Force_Field>
S-OPLS

> <r_lp_Energy>
18.714001

> <b_lp_Chiralities_Consistent>
1

> <s_lp_Variant>
Imipenem-1

> <s_epik_input>
W0NIM11bQ0BASF0oW09IXSlbQ0BASF0xQyg9TylOKFtDQEhdMTIpQyhDKD1PKVtPSF0pPUMoW0NIMl0yKVNbQ0gyXVtDSDJdL049W0NIXS9bTkgyXQ==

> <s_epik_cmdline>
J2VwaWtfcHl0aG9uJywgJy1waHQnLCAnMC4wJywgJy1waCcsICc3LjQnLCAnLW50JywgJy1tYScsICc1MDAnLCAnLWltYWUnLCAnPGluZmlsZS5tYWU+JywgJy1vbWFlJywgJzxvdXRmaWxlLm1hZT4n

> <r_lp_tautomer_probability>
1

> <r_epik_Ionization_Penalty>
  0.0001

> <r_epik_Ionization_Penalty_Charging>
  0.0001

> <r_epik_Ionization_Penalty_Neutral>
  0.0000

> <r_epik_State_Penalty>
  0.0000

> <r_epik_Charging_Adjusted_Penalty>
9.5675940864495e-05

> <i_epik_Tot_Q>
0

> <i_epik_Tot_abs_Q>
2

> <s_epik_Chemistry_Notes>
This compound has an imine and may undergo hydrolysis.

> <s_m_subgroup_title>
glide-dock_Nicaido_neutral_pv1

> <s_m_subgroupid>
glide-dock_Nicaido_neutral_pv1

> <b_m_subgroup_collapsed>
0

$$$$
Cefoxitin
                    3D
 Schrodinger Suite 2022-2.
 44 46  0  0  1  0            999 V2000
  -33.2666  -21.5496  -20.7301 C   0  0  0  0  0  0
  -32.6817  -22.0187  -21.9359 O   0  0  0  0  0  0
  -31.2571  -21.9491  -21.9850 C   0  0  2  0  0  0
  -30.6432  -20.5820  -22.3795 C   0  0  1  0  0  0
  -30.3705  -21.1543  -23.6821 N   0  0  0  0  0  0
  -30.7886  -22.4336  -23.3878 C   0  0  0  0  0  0
  -30.7673  -23.4640  -24.0310 O   0  0  0  0  0  0
  -29.7071  -20.4549  -24.6937 C   0  0  0  0  0  0
  -28.9903  -21.3667  -25.7186 C   0  0  0  0  0  0
  -27.9676  -21.9496  -25.2990 O   0  5  0  0  0  0
  -29.5689  -21.5496  -26.8133 O   0  0  0  0  0  0
  -29.6473  -19.1017  -24.7330 C   0  0  0  0  0  0
  -30.3319  -18.2063  -23.6891 C   0  0  0  0  0  0
  -31.5822  -19.0529  -22.6707 S   0  0  0  0  0  0
  -28.8651  -18.3433  -25.8043 C   0  0  0  0  0  0
  -29.6894  -17.3668  -26.4134 O   0  0  0  0  0  0
  -30.3018  -17.5625  -27.5810 C   0  0  0  0  0  0
  -31.4042  -16.7496  -27.6134 N   0  0  0  0  0  0
  -29.9689  -18.3496  -28.4618 O   0  0  0  0  0  0
  -30.5756  -22.5305  -20.8134 N   0  0  0  0  0  0
  -29.8546  -23.6574  -20.6860 C   0  0  0  0  0  0
  -29.4304  -24.0761  -19.2695 C   0  0  0  0  0  0
  -28.1620  -23.3899  -18.8539 C   0  0  0  0  0  0
  -27.9844  -22.0835  -18.4683 C   0  0  0  0  0  0
  -26.6377  -21.7693  -18.1287 C   0  0  0  0  0  0
  -25.7942  -22.8385  -18.2649 C   0  0  0  0  0  0
  -26.6453  -24.2556  -18.8134 S   0  0  0  0  0  0
  -29.4909  -24.3496  -21.6341 O   0  0  0  0  0  0
  -34.3401  -21.4226  -20.8676 H   0  0  0  0  0  0
  -33.1230  -22.2672  -19.9237 H   0  0  0  0  0  0
  -32.8498  -20.5898  -20.4229 H   0  0  0  0  0  0
  -29.7095  -20.3646  -21.8554 H   0  0  0  0  0  0
  -29.5689  -17.7934  -23.0299 H   0  0  0  0  0  0
  -30.8236  -17.3588  -24.1666 H   0  0  0  0  0  0
  -28.0312  -17.8408  -25.3154 H   0  0  0  0  0  0
  -28.4251  -19.0015  -26.5506 H   0  0  0  0  0  0
  -31.4769  -16.0713  -26.8628 H   0  0  0  0  0  0
  -31.9858  -16.7496  -28.4349 H   0  0  0  0  0  0
  -30.7689  -22.0620  -19.9248 H   0  0  0  0  0  0
  -29.2750  -25.1496  -19.2356 H   0  0  0  0  0  0
  -30.2347  -23.9496  -18.5480 H   0  0  0  0  0  0
  -28.7689  -21.3423  -18.4131 H   0  0  0  0  0  0
  -26.3467  -20.7830  -17.7951 H   0  0  0  0  0  0
  -24.7342  -22.8755  -18.0648 H   0  0  0  0  0  0
  1  2  1  0  0  0
  1 29  1  0  0  0
  1 30  1  0  0  0
  1 31  1  0  0  0
  2  3  1  0  0  0
  3  6  1  0  0  0
  3  4  1  0  0  0
  3 20  1  0  0  0
  4 14  1  0  0  0
  4  5  1  0  0  0
  4 32  1  0  0  0
  5  6  1  0  0  0
  5  8  1  0  0  0
  6  7  2  0  0  0
  8  9  1  0  0  0
  8 12  2  0  0  0
  9 10  1  0  0  0
  9 11  2  0  0  0
 12 13  1  0  0  0
 12 15  1  0  0  0
 13 14  1  0  0  0
 13 33  1  0  0  0
 13 34  1  0  0  0
 15 16  1  0  0  0
 15 35  1  0  0  0
 15 36  1  0  0  0
 16 17  1  0  0  0
 17 18  1  0  0  0
 17 19  2  0  0  0
 18 37  1  0  0  0
 18 38  1  0  0  0
 20 21  1  0  0  0
 20 39  1  0  0  0
 21 22  1  0  0  0
 21 28  2  0  0  0
 22 23  1  0  0  0
 22 40  1  0  0  0
 22 41  1  0  0  0
 23 27  1  0  0  0
 23 24  2  0  0  0
 24 25  1  0  0  0
 24 42  1  0  0  0
 25 26  2  0  0  0
 25 43  1  0  0  0
 26 27  1  0  0  0
 26 44  1  0  0  0
M  CHG  1  10  -1
M  END
> <s_m_entry_id>
27291

> <s_m_entry_name>
data_maestro.4

> <s_m_Source_Path>
C:\Users\olshana1\Git\GramNeg-Accumulation\Gram Negative Permeation - OmpF

> <s_m_Source_File>
data_maestro.csv

> <i_m_Source_File_Index>
4

> <s_m_job_name>
glide-dock_Nicaido_neutral

> <s_i_glide_gridfile>
3POX-grid

> <i_i_glide_lignum>
4

> <i_i_glide_rotatable_bonds>
9

> <r_i_docking_score>
-5.737817656284

> <r_i_glide_ligand_efficiency>
-0.204922059153

> <r_i_glide_ligand_efficiency_sa>
-0.622264064226882

> <r_i_glide_ligand_efficiency_ln>
-1.3244567847172

> <r_i_glide_gscore>
-5.737817656284

> <r_i_glide_lipo>
0

> <r_i_glide_hbond>
-1.08140253752432

> <r_i_glide_metal>
0

> <r_i_glide_rewards>
-0.409332846048119

> <r_i_glide_evdw>
-29.372314453125

> <r_i_glide_ecoul>
-17.8347282409668

> <r_i_glide_erotb>
0.545654768997296

> <r_i_glide_esite>
-0.648912082907592

> <r_i_glide_emodel>
-69.1300026792231

> <r_i_glide_energy>
-47.2070426940918

> <r_i_glide_einternal>
17.4959850311279

> <i_i_glide_confnum>
56

> <i_i_glide_posenum>
142

> <r_i_glide_eff_state_penalty>
0

> <r_glide_res:A132_vdw>
-0.345219434480961

> <r_glide_res:A132_coul>
-26.6197927557476

> <r_glide_res:A132_hbond>
-0.0455723564333532

> <r_glide_res:A132_dist>
1.72768601372318

> <r_glide_res:A132_Eint>
-27.0105845466619

> <r_glide_res:A117_vdw>
-4.58226490868119

> <r_glide_res:A117_coul>
24.2373598692519

> <r_glide_res:A117_hbond>
0

> <r_glide_res:A117_dist>
2.1410717940988

> <r_glide_res:A117_Eint>
19.6550949605707

> <r_glide_res:A113_vdw>
-4.03539665025393

> <r_glide_res:A113_coul>
2.4613457093609

> <r_glide_res:A113_hbond>
-0.153261819425007

> <r_glide_res:A113_dist>
1.842118262873

> <r_glide_res:A113_Eint>
-1.72731276031804

> <r_glide_res:A82_vdw>
-1.95198662871066

> <r_glide_res:A82_coul>
-41.3416042112259

> <r_glide_res:A82_hbond>
-0.0699935482749599

> <r_glide_res:A82_dist>
2.31732293525536

> <r_glide_res:A82_Eint>
-43.3635843882115

> <r_glide_res:A42_vdw>
0.540885256900903

> <r_glide_res:A42_coul>
-56.7391845495537

> <r_glide_res:A42_hbond>
-0.282900090529248

> <r_glide_res:A42_dist>
1.76207207089205

> <r_glide_res:A42_Eint>
-56.481199383182

> <r_glide_res:A16_vdw>
4.40271407365335

> <r_glide_res:A16_coul>
-63.5394018110934

> <r_glide_res:A16_hbond>
-0.271498269227322

> <r_glide_res:A16_dist>
1.54308085501082

> <r_glide_res:A16_Eint>
-59.4081860066674

> <s_m_source_file>
ligprep_Nicaido_neutral.maegz

> <i_m_source_file_index>
4

> <i_lp_mmshare_version>
58128

> <i_f3d_flags>
0

> <s_lp_Force_Field>
S-OPLS

> <r_lp_Energy>
27.517474

> <b_lp_Chiralities_Consistent>
1

> <s_lp_Variant>
Cefoxitin-1

> <s_epik_input>
czFbY0hdW2NIXVtjSF1jMVtDSDJdQyg9TylbTkhdW0NAXTIoT1tDSDNdKUMoPU8pTihbQ0BIXTIzKUMoQyg9TylbT0hdKT1DKFtDSDJdUzMpW0NIMl1PQyg9TylbTkgyXQ==

> <s_epik_cmdline>
J2VwaWtfcHl0aG9uJywgJy1waHQnLCAnMC4wJywgJy1waCcsICc3LjQnLCAnLW50JywgJy1tYScsICc1MDAnLCAnLWltYWUnLCAnPGluZmlsZS5tYWU+JywgJy1vbWFlJywgJzxvdXRmaWxlLm1hZT4n

> <r_lp_tautomer_probability>
1

> <r_epik_Ionization_Penalty>
  0.0000

> <r_epik_Ionization_Penalty_Charging>
  0.0000

> <r_epik_Ionization_Penalty_Neutral>
  0.0000

> <r_epik_State_Penalty>
  0.0000

> <r_epik_Charging_Adjusted_Penalty>
8.89144247208744e-06

> <i_epik_Tot_Q>
-1

> <i_epik_Tot_abs_Q>
1

> <s_epik_Chemistry_Notes>
This compound has an ester and may undergo hydrolysis at high or low pH. This compound contains an acetal/aminal-like group ( X-CH(R)-Y where X, Y are N, S, or O) that may be acid/base labile, releasing an aldehyde.

> <s_m_subgroup_title>
glide-dock_Nicaido_neutral_pv1

> <s_m_subgroupid>
glide-dock_Nicaido_neutral_pv1

> <b_m_subgroup_collapsed>
0

$$$$
Nocardicin B
                    3D
 Schrodinger Suite 2022-2.
 59 61  0  0  1  0            999 V2000
  -28.7490  -22.7310  -24.9339 O   0  0  0  0  0  0
  -29.4970  -22.4544  -24.0209 C   0  0  0  0  0  0
  -31.0134  -22.3217  -23.8767 C   0  0  2  0  0  0
  -30.7300  -22.2781  -22.3728 C   0  0  0  0  0  0
  -29.2937  -22.1727  -22.6867 N   0  0  0  0  0  0
  -28.1279  -22.0988  -21.7885 C   0  0  2  0  0  0
  -27.1173  -21.0231  -22.1184 C   0  0  0  0  0  0
  -26.3951  -20.4190  -21.0572 C   0  0  0  0  0  0
  -25.4348  -19.4095  -21.2788 C   0  0  0  0  0  0
  -25.1693  -18.9650  -22.5855 C   0  0  0  0  0  0
  -25.8606  -19.5492  -23.6592 C   0  0  0  0  0  0
  -26.8146  -20.5557  -23.4236 C   0  0  0  0  0  0
  -24.2855  -17.9487  -22.8134 O   0  0  0  0  0  0
  -27.3450  -23.4241  -21.7377 C   0  0  0  0  0  0
  -27.1637  -23.9532  -20.6197 O   0  5  0  0  0  0
  -26.9800  -23.9495  -22.8133 O   0  0  0  0  0  0
  -31.7092  -23.5230  -24.3473 N   0  0  0  0  0  0
  -31.8990  -23.7802  -25.6550 C   0  0  0  0  0  0
  -32.5504  -25.1185  -25.9505 C   0  0  0  0  0  0
  -33.0286  -25.2099  -27.3555 C   0  0  0  0  0  0
  -34.1748  -24.4990  -27.7681 C   0  0  0  0  0  0
  -34.6225  -24.5742  -29.1005 C   0  0  0  0  0  0
  -33.9327  -25.3726  -30.0444 C   0  0  0  0  0  0
  -32.7652  -26.0481  -29.6375 C   0  0  0  0  0  0
  -32.3202  -25.9780  -28.3040 C   0  0  0  0  0  0
  -34.3384  -25.5492  -31.3501 O   0  0  0  0  0  0
  -35.6973  -25.2859  -31.6899 C   0  0  0  0  0  0
  -36.6633  -26.2859  -31.0129 C   0  0  0  0  0  0
  -38.1402  -26.0892  -31.4275 C   0  0  2  0  0  0
  -39.1226  -26.9134  -30.5835 C   0  0  0  0  0  0
  -38.7110  -27.9495  -30.0132 O   0  5  0  0  0  0
  -40.3098  -26.5256  -30.5827 O   0  0  0  0  0  0
  -38.3688  -26.4965  -32.8189 N   0  3  0  0  0  0
  -32.6296  -26.0597  -25.0890 N   0  0  0  0  0  0
  -33.4085  -27.1496  -25.6139 O   0  0  0  0  0  0
  -31.5497  -23.0105  -26.5560 O   0  0  0  0  0  0
  -31.4263  -21.3842  -24.2524 H   0  0  0  0  0  0
  -31.1406  -21.3977  -21.8757 H   0  0  0  0  0  0
  -30.9952  -23.1883  -21.8324 H   0  0  0  0  0  0
  -28.5312  -21.9141  -20.7910 H   0  0  0  0  0  0
  -26.5871  -20.7348  -20.0414 H   0  0  0  0  0  0
  -24.9212  -18.9637  -20.4399 H   0  0  0  0  0  0
  -25.6780  -19.2081  -24.6685 H   0  0  0  0  0  0
  -27.3099  -20.9526  -24.2886 H   0  0  0  0  0  0
  -24.3693  -17.5777  -23.6944 H   0  0  0  0  0  0
  -32.0423  -24.1902  -23.6648 H   0  0  0  0  0  0
  -34.7232  -23.8952  -27.0583 H   0  0  0  0  0  0
  -35.5094  -24.0209  -29.3671 H   0  0  0  0  0  0
  -32.2267  -26.6576  -30.3488 H   0  0  0  0  0  0
  -31.4422  -26.5334  -28.0071 H   0  0  0  0  0  0
  -35.7707  -25.3875  -32.7730 H   0  0  0  0  0  0
  -35.9668  -24.2509  -31.4781 H   0  0  0  0  0  0
  -36.5938  -26.1777  -29.9314 H   0  0  0  0  0  0
  -36.3477  -27.3091  -31.2135 H   0  0  0  0  0  0
  -38.4005  -25.0334  -31.3275 H   0  0  0  0  0  0
  -39.3339  -26.3093  -33.0514 H   0  0  0  0  0  0
  -37.7571  -25.9969  -33.4533 H   0  0  0  0  0  0
  -32.7648  -27.7697  -25.9496 H   0  0  0  0  0  0
  -38.2004  -27.4895  -32.8897 H   0  0  0  0  0  0
  1  2  2  0  0  0
  2  5  1  0  0  0
  2  3  1  0  0  0
  3  4  1  0  0  0
  3 17  1  0  0  0
  3 37  1  0  0  0
  4  5  1  0  0  0
  4 38  1  0  0  0
  4 39  1  0  0  0
  5  6  1  0  0  0
  6  7  1  0  0  0
  6 14  1  0  0  0
  6 40  1  0  0  0
  7 12  1  0  0  0
  7  8  2  0  0  0
  8  9  1  0  0  0
  8 41  1  0  0  0
  9 10  2  0  0  0
  9 42  1  0  0  0
 10 11  1  0  0  0
 10 13  1  0  0  0
 11 12  2  0  0  0
 11 43  1  0  0  0
 12 44  1  0  0  0
 13 45  1  0  0  0
 14 15  1  0  0  0
 14 16  2  0  0  0
 17 18  1  0  0  0
 17 46  1  0  0  0
 18 19  1  0  0  0
 18 36  2  0  0  0
 19 20  1  0  0  0
 19 34  2  3  0  0
 20 25  1  0  0  0
 20 21  2  0  0  0
 21 22  1  0  0  0
 21 47  1  0  0  0
 22 23  2  0  0  0
 22 48  1  0  0  0
 23 24  1  0  0  0
 23 26  1  0  0  0
 24 25  2  0  0  0
 24 49  1  0  0  0
 25 50  1  0  0  0
 26 27  1  0  0  0
 27 28  1  0  0  0
 27 51  1  0  0  0
 27 52  1  0  0  0
 28 29  1  0  0  0
 28 53  1  0  0  0
 28 54  1  0  0  0
 29 30  1  0  0  0
 29 33  1  0  0  0
 29 55  1  0  0  0
 30 31  1  0  0  0
 30 32  2  0  0  0
 33 56  1  0  0  0
 33 57  1  0  0  0
 33 59  1  0  0  0
 34 35  1  0  0  0
 35 58  1  0  0  0
M  CHG  3  15  -1  31  -1  33   1
M  END
> <s_m_entry_id>
27292

> <s_m_entry_name>
data_maestro.29

> <s_m_Source_Path>
C:\Users\olshana1\Git\GramNeg-Accumulation\Gram Negative Permeation - OmpF

> <s_m_Source_File>
data_maestro.csv

> <i_m_Source_File_Index>
29

> <s_m_job_name>
glide-dock_Nicaido_neutral

> <s_i_glide_gridfile>
3POX-grid

> <i_i_glide_lignum>
36

> <i_i_glide_rotatable_bonds>
14

> <r_i_docking_score>
-5.71590947581789

> <r_i_glide_ligand_efficiency>
-0.158775263217164

> <r_i_glide_ligand_efficiency_sa>
-0.524264367440932

> <r_i_glide_ligand_efficiency_ln>
-1.24705702159555

> <r_i_glide_gscore>
-5.71590947581789

> <r_i_glide_lipo>
-0.161384893812384

> <r_i_glide_hbond>
-1.37983472339147

> <r_i_glide_metal>
0

> <r_i_glide_rewards>
0.0289876203310528

> <r_i_glide_evdw>
-28.6263656616211

> <r_i_glide_ecoul>
-20.3633270263672

> <r_i_glide_erotb>
0.900147327125679

> <r_i_glide_esite>
-0.618007469034634

> <r_i_glide_emodel>
-81.8356145677267

> <r_i_glide_energy>
-48.9896926879883

> <r_i_glide_einternal>
10.8265705108643

> <i_i_glide_confnum>
405

> <i_i_glide_posenum>
73

> <r_i_glide_eff_state_penalty>
0

> <r_glide_res:A132_vdw>
-1.11422703409851

> <r_glide_res:A132_coul>
-48.4914313769686

> <r_glide_res:A132_hbond>
-0.333479794312472

> <r_glide_res:A132_dist>
2.04903609876427

> <r_glide_res:A132_Eint>
-49.9391382053795

> <r_glide_res:A117_vdw>
-2.33217788132052

> <r_glide_res:A117_coul>
13.8690588506501

> <r_glide_res:A117_hbond>
-0.152122825568423

> <r_glide_res:A117_dist>
1.85299037291453

> <r_glide_res:A117_Eint>
11.3847581437612

> <r_glide_res:A113_vdw>
-1.37082843521529

> <r_glide_res:A113_coul>
23.1965031226232

> <r_glide_res:A113_hbond>
0

> <r_glide_res:A113_dist>
3.56827458851814

> <r_glide_res:A113_Eint>
21.8256746874079

> <r_glide_res:A82_vdw>
1.61245693490945

> <r_glide_res:A82_coul>
-48.4327021790829

> <r_glide_res:A82_hbond>
-0.183965588275441

> <r_glide_res:A82_dist>
1.56793117655088

> <r_glide_res:A82_Eint>
-47.0042108324489

> <r_glide_res:A42_vdw>
-2.88753300371204

> <r_glide_res:A42_coul>
-37.8623043377626

> <r_glide_res:A42_hbond>
-0.214788432621117

> <r_glide_res:A42_dist>
1.92011524658767

> <r_glide_res:A42_Eint>
-40.9646257740958

> <r_glide_res:A16_vdw>
-3.00993685347815

> <r_glide_res:A16_coul>
-25.7013427366726

> <r_glide_res:A16_hbond>
0

> <r_glide_res:A16_dist>
2.7287985968283

> <r_glide_res:A16_Eint>
-28.7112795901508

> <s_m_source_file>
ligprep_Nicaido_neutral.maegz

> <i_m_source_file_index>
29

> <i_lp_mmshare_version>
58128

> <i_f3d_flags>
0

> <s_lp_Force_Field>
S-OPLS

> <r_lp_Energy>
60.848016

> <b_lp_Chiralities_Consistent>
1

> <s_lp_Variant>
Nocardicin B-1

> <s_epik_input>
W2NIXTFbY0hdYyhbT0hdKVtjSF1bY0hdYzFbQ0BIXShDKD1PKVtPSF0pTjJbQ0gyXVtDQEBIXShDMj1PKVtOSF1DKD1PKS9DKD1OL1tPSF0pYzNbY0hdW2NIXWMoW2NIXVtjSF0zKU9bQ0gyXVtDSDJdW0NAQEhdKFtOSDJdKUMoPU8pW09IXQ==

> <s_epik_cmdline>
J2VwaWtfcHl0aG9uJywgJy1waHQnLCAnMC4wJywgJy1waCcsICc3LjQnLCAnLW50JywgJy1tYScsICc1MDAnLCAnLWltYWUnLCAnPGluZmlsZS5tYWU+JywgJy1vbWFlJywgJzxvdXRmaWxlLm1hZT4n

> <r_lp_tautomer_probability>
1

> <r_epik_Ionization_Penalty>
  0.0116

> <r_epik_Ionization_Penalty_Charging>
  0.0086

> <r_epik_Ionization_Penalty_Neutral>
  0.0030

> <r_epik_State_Penalty>
  0.0000

> <r_epik_Charging_Adjusted_Penalty>
0.0085560600321308

> <i_epik_Tot_Q>
-1

> <i_epik_Tot_abs_Q>
3

> <s_epik_Chemistry_Notes>
This compound has an imine and may undergo hydrolysis.

> <s_m_subgroup_title>
glide-dock_Nicaido_neutral_pv1

> <s_m_subgroupid>
glide-dock_Nicaido_neutral_pv1

> <b_m_subgroup_collapsed>
0

$$$$
Cefuroxime
                    3D
 Schrodinger Suite 2022-2.
 44 46  0  0  1  0            999 V2000
  -29.1848  -26.0834  -17.2041 C   0  0  0  0  0  0
  -28.3689  -24.9994  -17.5817 O   0  0  0  0  0  0
  -28.9372  -24.3496  -18.6718 N   0  0  0  0  0  0
  -28.1162  -23.5389  -19.2099 C   0  0  0  0  0  0
  -26.7426  -23.3099  -18.7620 C   0  0  0  0  0  0
  -26.1801  -22.7496  -17.6474 C   0  0  0  0  0  0
  -24.7709  -22.8516  -17.8047 C   0  0  0  0  0  0
  -24.5721  -23.4780  -19.0017 C   0  0  0  0  0  0
  -25.7620  -23.7794  -19.5923 O   0  0  0  0  0  0
  -28.4963  -22.7495  -20.4277 C   0  0  0  0  0  0
  -29.7897  -22.3762  -20.4134 N   0  0  0  0  0  0
  -30.6010  -21.8070  -21.4910 C   0  0  1  0  0  0
  -30.0316  -20.5129  -22.0996 C   0  0  1  0  0  0
  -30.0873  -21.1837  -23.3848 N   0  0  0  0  0  0
  -30.3459  -22.4452  -22.8733 C   0  0  0  0  0  0
  -30.2972  -23.5638  -23.3433 O   0  0  0  0  0  0
  -29.6221  -20.5633  -24.5537 C   0  0  0  0  0  0
  -29.0492  -21.5496  -25.6143 C   0  0  0  0  0  0
  -28.1717  -22.3496  -25.2134 O   0  5  0  0  0  0
  -29.5689  -21.5423  -26.7523 O   0  0  0  0  0  0
  -29.5878  -19.2102  -24.6872 C   0  0  0  0  0  0
  -30.0558  -18.2442  -23.5907 C   0  0  0  0  0  0
  -31.0195  -19.0021  -22.2556 S   0  0  0  0  0  0
  -29.0287  -18.4914  -25.9131 C   0  0  0  0  0  0
  -29.9742  -17.5496  -26.3937 O   0  0  0  0  0  0
  -30.5079  -17.6190  -27.6134 C   0  0  0  0  0  0
  -31.5689  -16.7496  -27.6537 N   0  0  0  0  0  0
  -30.1435  -18.3496  -28.5329 O   0  0  0  0  0  0
  -27.7041  -22.5521  -21.3504 O   0  0  0  0  0  0
  -28.9168  -26.3496  -16.1841 H   0  0  0  0  0  0
  -30.2485  -25.8458  -17.2134 H   0  0  0  0  0  0
  -28.9975  -26.9454  -17.8426 H   0  0  0  0  0  0
  -26.7243  -22.3315  -16.8134 H   0  0  0  0  0  0
  -24.0049  -22.5097  -17.1243 H   0  0  0  0  0  0
  -23.6922  -23.7720  -19.5541 H   0  0  0  0  0  0
  -30.2776  -22.4380  -19.5134 H   0  0  0  0  0  0
  -31.6540  -21.7069  -21.2251 H   0  0  0  0  0  0
  -29.0034  -20.2833  -21.8127 H   0  0  0  0  0  0
  -29.1689  -17.7948  -23.1510 H   0  0  0  0  0  0
  -30.6539  -17.4313  -24.0022 H   0  0  0  0  0  0
  -28.1312  -17.9496  -25.6134 H   0  0  0  0  0  0
  -28.7253  -19.1846  -26.6940 H   0  0  0  0  0  0
  -31.6801  -16.1343  -26.8567 H   0  0  0  0  0  0
  -32.0927  -16.6644  -28.5091 H   0  0  0  0  0  0
  1  2  1  0  0  0
  1 30  1  0  0  0
  1 31  1  0  0  0
  1 32  1  0  0  0
  2  3  1  0  0  0
  3  4  2  3  0  0
  4  5  1  0  0  0
  4 10  1  0  0  0
  5  9  1  0  0  0
  5  6  2  0  0  0
  6  7  1  0  0  0
  6 33  1  0  0  0
  7  8  2  0  0  0
  7 34  1  0  0  0
  8  9  1  0  0  0
  8 35  1  0  0  0
 10 11  1  0  0  0
 10 29  2  0  0  0
 11 12  1  0  0  0
 11 36  1  0  0  0
 12 15  1  0  0  0
 12 13  1  0  0  0
 12 37  1  0  0  0
 13 23  1  0  0  0
 13 14  1  0  0  0
 13 38  1  0  0  0
 14 15  1  0  0  0
 14 17  1  0  0  0
 15 16  2  0  0  0
 17 18  1  0  0  0
 17 21  2  0  0  0
 18 19  1  0  0  0
 18 20  2  0  0  0
 21 22  1  0  0  0
 21 24  1  0  0  0
 22 23  1  0  0  0
 22 39  1  0  0  0
 22 40  1  0  0  0
 24 25  1  0  0  0
 24 41  1  0  0  0
 24 42  1  0  0  0
 25 26  1  0  0  0
 26 27  1  0  0  0
 26 28  2  0  0  0
 27 43  1  0  0  0
 27 44  1  0  0  0
M  CHG  1  19  -1
M  END
> <s_m_entry_id>
27293

> <s_m_entry_name>
data_maestro.10

> <s_m_Source_Path>
C:\Users\olshana1\Git\GramNeg-Accumulation\Gram Negative Permeation - OmpF

> <s_m_Source_File>
data_maestro.csv

> <i_m_Source_File_Index>
10

> <s_m_job_name>
glide-dock_Nicaido_neutral

> <s_i_glide_gridfile>
3POX-grid

> <i_i_glide_lignum>
13

> <i_i_glide_rotatable_bonds>
9

> <r_i_docking_score>
-5.69818606577791

> <r_i_glide_ligand_efficiency>
-0.196489174681997

> <r_i_glide_ligand_efficiency_sa>
-0.603676996763038

> <r_i_glide_ligand_efficiency_ln>
-1.30474011553176

> <r_i_glide_gscore>
-5.69818606577791

> <r_i_glide_lipo>
-0.0301569822609593

> <r_i_glide_hbond>
-1.1481750107622

> <r_i_glide_metal>
0

> <r_i_glide_rewards>
-0.509248396108884

> <r_i_glide_evdw>
-31.5500411987305

> <r_i_glide_ecoul>
-14.8888034820557

> <r_i_glide_erotb>
0.663396273735242

> <r_i_glide_esite>
-0.863179368136241

> <r_i_glide_emodel>
-73.2608119902696

> <r_i_glide_energy>
-46.4388446807861

> <r_i_glide_einternal>
8.77358150482178

> <i_i_glide_confnum>
49

> <i_i_glide_posenum>
185

> <r_i_glide_eff_state_penalty>
0

> <r_glide_res:A132_vdw>
-3.11050968520136

> <r_glide_res:A132_coul>
-25.9570215934731

> <r_glide_res:A132_hbond>
-0.0576114598309461

> <r_glide_res:A132_dist>
2.35597135042263

> <r_glide_res:A132_Eint>
-29.1251427385054

> <r_glide_res:A117_vdw>
-4.24502684419418

> <r_glide_res:A117_coul>
24.2249455872871

> <r_glide_res:A117_hbond>
0

> <r_glide_res:A117_dist>
2.2506360656533

> <r_glide_res:A117_Eint>
19.9799187430929

> <r_glide_res:A113_vdw>
-2.13725207373757

> <r_glide_res:A113_coul>
9.32915776140152

> <r_glide_res:A113_hbond>
-0.16

> <r_glide_res:A113_dist>
1.73178739464894

> <r_glide_res:A113_Eint>
7.03190568766395

> <r_glide_res:A82_vdw>
-1.71317147735355

> <r_glide_res:A82_coul>
-39.1947021462014

> <r_glide_res:A82_hbond>
-0.0757995603631485

> <r_glide_res:A82_dist>
2.26753794113378

> <r_glide_res:A82_Eint>
-40.9836731839181

> <r_glide_res:A42_vdw>
2.12359886691636

> <r_glide_res:A42_coul>
-56.3472234430857

> <r_glide_res:A42_hbond>
-0.403374921444319

> <r_glide_res:A42_dist>
1.75237584742639

> <r_glide_res:A42_Eint>
-54.6269994976136

> <r_glide_res:A16_vdw>
3.42788611931964

> <r_glide_res:A16_coul>
-61.1412485200029

> <r_glide_res:A16_hbond>
-0.305674029101063

> <r_glide_res:A16_dist>
1.59334286718511

> <r_glide_res:A16_Eint>
-58.0190364297843

> <s_m_source_file>
ligprep_Nicaido_neutral.maegz

> <i_m_source_file_index>
10

> <i_lp_mmshare_version>
58128

> <i_f3d_flags>
0

> <s_lp_Force_Field>
S-OPLS

> <r_lp_Energy>
41.721283

> <b_lp_Chiralities_Consistent>
1

> <s_lp_Variant>
Cefuroxime-1

> <s_epik_input>
bzFbY0hdW2NIXVtjSF1jMS9DKD1OXE9bQ0gzXSlDKD1PKVtOSF1bQ0BASF0yQyg9TylOKFtDQEhdMjMpQyhDKD1PKVtPSF0pPUMoW0NIMl1TMylbQ0gyXU9DKD1PKVtOSDJd

> <s_epik_cmdline>
J2VwaWtfcHl0aG9uJywgJy1waHQnLCAnMC4wJywgJy1waCcsICc3LjQnLCAnLW50JywgJy1tYScsICc1MDAnLCAnLWltYWUnLCAnPGluZmlsZS5tYWU+JywgJy1vbWFlJywgJzxvdXRmaWxlLm1hZT4n

> <r_lp_tautomer_probability>
1

> <r_epik_Ionization_Penalty>
  0.0000

> <r_epik_Ionization_Penalty_Charging>
  0.0000

> <r_epik_Ionization_Penalty_Neutral>
  0.0000

> <r_epik_State_Penalty>
  0.0000

> <r_epik_Charging_Adjusted_Penalty>
8.57368987839538e-06

> <i_epik_Tot_Q>
-1

> <i_epik_Tot_abs_Q>
1

> <s_epik_Chemistry_Notes>
This compound has an ester and may undergo hydrolysis at high or low pH. This compound has an imine and may undergo hydrolysis. This compound contains an acetal/aminal-like group ( X-CH(R)-Y where X, Y are N, S, or O) that may be acid/base labile, releasing an aldehyde.

> <s_m_subgroup_title>
glide-dock_Nicaido_neutral_pv1

> <s_m_subgroupid>
glide-dock_Nicaido_neutral_pv1

> <b_m_subgroup_collapsed>
0

$$$$
Cefamandole
                    3D
 Schrodinger Suite 2022-2.
 48 51  0  0  1  0            999 V2000
  -26.7791  -20.8516  -17.8209 C   0  0  0  0  0  0
  -27.3018  -22.0969  -18.3455 N   0  0  0  0  0  0
  -26.9199  -22.8536  -19.3778 C   0  0  0  0  0  0
  -25.5411  -22.5231  -20.4163 S   0  0  0  0  0  0
  -26.0932  -21.0132  -21.2827 C   0  0  0  0  0  0
  -27.5763  -20.9090  -21.6582 C   0  0  0  0  0  0
  -28.1466  -21.6707  -22.6271 C   0  0  0  0  0  0
  -29.4410  -21.4494  -23.1321 N   0  0  0  0  0  0
  -30.4276  -20.5772  -22.5168 C   0  0  2  0  0  0
  -31.1969  -20.6290  -23.8551 C   0  0  2  0  0  0
  -30.2162  -21.7719  -24.2348 C   0  0  0  0  0  0
  -30.0783  -22.5802  -25.1320 O   0  0  0  0  0  0
  -30.9949  -19.3969  -24.6212 N   0  0  0  0  0  0
  -31.4320  -19.1609  -25.8642 C   0  0  0  0  0  0
  -31.0222  -17.8178  -26.4915 C   0  0  2  0  0  0
  -32.2071  -17.1504  -27.1905 C   0  0  0  0  0  0
  -33.0838  -16.3264  -26.4493 C   0  0  0  0  0  0
  -34.1497  -15.6615  -27.0852 C   0  0  0  0  0  0
  -34.3588  -15.8310  -28.4675 C   0  0  0  0  0  0
  -33.5038  -16.6653  -29.2110 C   0  0  0  0  0  0
  -32.4318  -17.3230  -28.5755 C   0  0  0  0  0  0
  -29.9174  -18.0276  -27.3553 O   0  0  0  0  0  0
  -32.0956  -19.9817  -26.5014 O   0  0  0  0  0  0
  -29.6328  -19.0469  -21.9396 S   0  0  0  0  0  0
  -28.3319  -19.7948  -20.9332 C   0  0  0  0  0  0
  -27.3635  -22.8083  -23.3335 C   0  0  0  0  0  0
  -26.8100  -22.5078  -24.4133 O   0  5  0  0  0  0
  -27.4459  -23.9494  -22.8133 O   0  0  0  0  0  0
  -27.6627  -23.9494  -19.4616 N   0  0  0  0  0  0
  -28.5424  -23.8320  -18.4067 N   0  0  0  0  0  0
  -28.3264  -22.7384  -17.7350 N   0  0  0  0  0  0
  -26.4960  -20.1769  -18.6227 H   0  0  0  0  0  0
  -27.5363  -20.3516  -17.2192 H   0  0  0  0  0  0
  -25.9060  -21.0525  -17.2026 H   0  0  0  0  0  0
  -25.5069  -20.9306  -22.1990 H   0  0  0  0  0  0
  -25.7885  -20.1503  -20.6929 H   0  0  0  0  0  0
  -30.9425  -21.0861  -21.6980 H   0  0  0  0  0  0
  -32.2415  -20.9180  -23.7300 H   0  0  0  0  0  0
  -30.4330  -18.6894  -24.1653 H   0  0  0  0  0  0
  -30.6803  -17.1508  -25.6970 H   0  0  0  0  0  0
  -32.9229  -16.1800  -25.3908 H   0  0  0  0  0  0
  -34.8004  -15.0155  -26.5138 H   0  0  0  0  0  0
  -35.1697  -15.3160  -28.9609 H   0  0  0  0  0  0
  -33.6615  -16.7885  -30.2726 H   0  0  0  0  0  0
  -31.7768  -17.9503  -29.1604 H   0  0  0  0  0  0
  -29.5455  -17.1785  -27.5590 H   0  0  0  0  0  0
  -28.7697  -20.1938  -20.0180 H   0  0  0  0  0  0
  -27.6607  -18.9864  -20.6429 H   0  0  0  0  0  0
  1  2  1  0  0  0
  1 32  1  0  0  0
  1 33  1  0  0  0
  1 34  1  0  0  0
  2 31  1  0  0  0
  2  3  1  0  0  0
  3  4  1  0  0  0
  3 29  2  0  0  0
  4  5  1  0  0  0
  5  6  1  0  0  0
  5 35  1  0  0  0
  5 36  1  0  0  0
  6 25  1  0  0  0
  6  7  2  0  0  0
  7  8  1  0  0  0
  7 26  1  0  0  0
  8 11  1  0  0  0
  8  9  1  0  0  0
  9 10  1  0  0  0
  9 24  1  0  0  0
  9 37  1  0  0  0
 10 11  1  0  0  0
 10 13  1  0  0  0
 10 38  1  0  0  0
 11 12  2  0  0  0
 13 14  1  0  0  0
 13 39  1  0  0  0
 14 15  1  0  0  0
 14 23  2  0  0  0
 15 16  1  0  0  0
 15 22  1  0  0  0
 15 40  1  0  0  0
 16 21  1  0  0  0
 16 17  2  0  0  0
 17 18  1  0  0  0
 17 41  1  0  0  0
 18 19  2  0  0  0
 18 42  1  0  0  0
 19 20  1  0  0  0
 19 43  1  0  0  0
 20 21  2  0  0  0
 20 44  1  0  0  0
 21 45  1  0  0  0
 22 46  1  0  0  0
 24 25  1  0  0  0
 25 47  1  0  0  0
 25 48  1  0  0  0
 26 27  1  0  0  0
 26 28  2  0  0  0
 29 30  1  0  0  0
 30 31  2  0  0  0
M  CHG  1  27  -1
M  END
> <s_m_entry_id>
27294

> <s_m_entry_name>
data_maestro.9

> <s_m_Source_Path>
C:\Users\olshana1\Git\GramNeg-Accumulation\Gram Negative Permeation - OmpF

> <s_m_Source_File>
data_maestro.csv

> <i_m_Source_File_Index>
9

> <s_m_job_name>
glide-dock_Nicaido_neutral

> <s_i_glide_gridfile>
3POX-grid

> <i_i_glide_lignum>
12

> <i_i_glide_rotatable_bonds>
9

> <r_i_docking_score>
-5.68151888715455

> <r_i_glide_ligand_efficiency>
-0.183274802811437

> <r_i_glide_ligand_efficiency_sa>
-0.575735918963673

> <r_i_glide_ligand_efficiency_ln>
-1.2813566266965

> <r_i_glide_gscore>
-5.68151888715455

> <r_i_glide_lipo>
-0.560800513050149

> <r_i_glide_hbond>
-0.526280185054776

> <r_i_glide_metal>
0

> <r_i_glide_rewards>
-0.262519907944716

> <r_i_glide_evdw>
-34.649242401123

> <r_i_glide_ecoul>
-16.0788593292236

> <r_i_glide_erotb>
0.567285116635731

> <r_i_glide_esite>
-0.754912378300946

> <r_i_glide_emodel>
-77.7076463620338

> <r_i_glide_energy>
-50.7281017303467

> <r_i_glide_einternal>
10.6268844604492

> <i_i_glide_confnum>
130

> <i_i_glide_posenum>
144

> <r_i_glide_eff_state_penalty>
0

> <r_glide_res:A132_vdw>
-2.02524935842561

> <r_glide_res:A132_coul>
-40.4551904096764

> <r_glide_res:A132_hbond>
0

> <r_glide_res:A132_dist>
2.11071691534266

> <r_glide_res:A132_Eint>
-42.480439768102

> <r_glide_res:A117_vdw>
-3.45307252201651

> <r_glide_res:A117_coul>
21.085080761778

> <r_glide_res:A117_hbond>
0

> <r_glide_res:A117_dist>
2.88472338461533

> <r_glide_res:A117_Eint>
17.6320082397615

> <r_glide_res:A113_vdw>
-3.86554320765157

> <r_glide_res:A113_coul>
20.6770048124994

> <r_glide_res:A113_hbond>
0

> <r_glide_res:A113_dist>
2.53665922269678

> <r_glide_res:A113_Eint>
16.8114616048478

> <r_glide_res:A82_vdw>
2.91575137258657

> <r_glide_res:A82_coul>
-52.8564810460517

> <r_glide_res:A82_hbond>
-0.187340856558344

> <r_glide_res:A82_dist>
1.57468171311669

> <r_glide_res:A82_Eint>
-50.1280705300235

> <r_glide_res:A42_vdw>
0.298047652262952

> <r_glide_res:A42_coul>
-51.6794437796988

> <r_glide_res:A42_hbond>
-0.338939328496431

> <r_glide_res:A42_dist>
1.8095556000979

> <r_glide_res:A42_Eint>
-51.7203354559323

> <r_glide_res:A16_vdw>
-1.65221084764646

> <r_glide_res:A16_coul>
-38.3664898453301

> <r_glide_res:A16_hbond>
0

> <r_glide_res:A16_dist>
2.49391484296874

> <r_glide_res:A16_Eint>
-40.0187006929766

> <s_m_source_file>
ligprep_Nicaido_neutral.maegz

> <i_m_source_file_index>
9

> <i_lp_mmshare_version>
58128

> <i_f3d_flags>
0

> <s_lp_Force_Field>
S-OPLS

> <r_lp_Energy>
50.610726

> <b_lp_Chiralities_Consistent>
1

> <s_lp_Variant>
Cefamandole-1

> <s_epik_input>
bjFubmMobjFbQ0gzXSlTW0NIMl1DKD1DMkMoPU8pW09IXSlbQ0gyXVNbQ0BIXShOMjMpW0NASF0oQzM9TylbTkhdQyg9TylbQ0BASF0oW09IXSljNFtjSF1bY0hdW2NIXVtjSF1bY0hdNA==

> <s_epik_cmdline>
J2VwaWtfcHl0aG9uJywgJy1waHQnLCAnMC4wJywgJy1waCcsICc3LjQnLCAnLW50JywgJy1tYScsICc1MDAnLCAnLWltYWUnLCAnPGluZmlsZS5tYWU+JywgJy1vbWFlJywgJzxvdXRmaWxlLm1hZT4n

> <r_lp_tautomer_probability>
1

> <r_epik_Ionization_Penalty>
  0.0002

> <r_epik_Ionization_Penalty_Charging>
  0.0000

> <r_epik_Ionization_Penalty_Neutral>
  0.0002

> <r_epik_State_Penalty>
  0.0000

> <r_epik_Charging_Adjusted_Penalty>
8.65070171415913e-06

> <i_epik_Tot_Q>
-1

> <i_epik_Tot_abs_Q>
1

> <s_epik_Chemistry_Notes>
This compound contains an acetal/aminal-like group ( X-CH(R)-Y where X, Y are N, S, or O) that may be acid/base labile, releasing an aldehyde.

> <s_m_subgroup_title>
glide-dock_Nicaido_neutral_pv1

> <s_m_subgroupid>
glide-dock_Nicaido_neutral_pv1

> <b_m_subgroup_collapsed>
0

$$$$
SCE-796
                    3D
 Schrodinger Suite 2022-2.
 54 57  0  0  1  0            999 V2000
  -27.1699  -24.2681  -21.4506 O   0  0  0  0  0  0
  -27.3854  -23.2241  -20.8717 C   0  0  0  0  0  0
  -27.3842  -22.6907  -19.4201 C   0  0  2  0  0  0
  -27.4794  -21.2894  -20.0574 C   0  0  2  0  0  0
  -27.5605  -21.9505  -21.3481 N   0  0  0  0  0  0
  -27.5075  -21.3037  -22.5900 C   0  0  0  0  0  0
  -27.9082  -22.2128  -23.8112 C   0  0  0  0  0  0
  -27.1714  -22.1434  -24.8133 O   0  5  0  0  0  0
  -28.8985  -22.9682  -23.6854 O   0  0  0  0  0  0
  -27.1477  -19.9957  -22.7025 C   0  0  0  0  0  0
  -26.7027  -19.1501  -21.5029 C   0  0  0  0  0  0
  -26.0917  -20.1179  -20.1046 S   0  0  0  0  0  0
  -27.1954  -19.2119  -24.0212 C   0  0  0  0  0  0
  -28.5623  -18.7546  -24.3948 N   0  3  0  0  0  0
  -28.7590  -18.3633  -25.6790 C   0  0  0  0  0  0
  -30.0283  -17.9497  -26.1285 C   0  0  0  0  0  0
  -31.1086  -17.9190  -25.2217 C   0  0  0  0  0  0
  -30.8809  -18.3193  -23.8879 C   0  0  0  0  0  0
  -29.5916  -18.7321  -23.5000 C   0  0  0  0  0  0
  -32.4668  -17.4801  -25.6804 C   0  0  0  0  0  0
  -33.1683  -16.7486  -24.8133 N   0  0  0  0  0  0
  -32.8740  -17.7483  -26.8086 O   0  0  0  0  0  0
  -26.1140  -22.8902  -18.7301 N   0  0  0  0  0  0
  -25.5642  -24.0726  -18.4123 C   0  0  0  0  0  0
  -24.2078  -24.0512  -17.6673 C   0  0  2  0  0  0
  -23.5822  -22.6619  -17.4965 C   0  0  0  0  0  0
  -23.4432  -22.1216  -16.1988 C   0  0  0  0  0  0
  -22.8664  -20.8506  -16.0142 C   0  0  0  0  0  0
  -22.4380  -20.1000  -17.1251 C   0  0  0  0  0  0
  -22.5741  -20.6290  -18.4225 C   0  0  0  0  0  0
  -23.1369  -21.9065  -18.6081 C   0  0  0  0  0  0
  -23.1929  -24.9877  -18.3606 C   0  0  0  0  0  0
  -22.3692  -25.5495  -17.6005 O   0  5  0  0  0  0
  -23.2339  -25.1494  -19.6038 O   0  0  0  0  0  0
  -26.1324  -25.1448  -18.6399 O   0  0  0  0  0  0
  -28.2627  -22.9423  -18.8244 H   0  0  0  0  0  0
  -28.4150  -20.7785  -19.8170 H   0  0  0  0  0  0
  -25.9059  -18.4667  -21.7928 H   0  0  0  0  0  0
  -27.5410  -18.5506  -21.1478 H   0  0  0  0  0  0
  -26.5370  -18.3491  -24.0135 H   0  0  0  0  0  0
  -26.8192  -19.8054  -24.8500 H   0  0  0  0  0  0
  -27.8877  -18.3677  -26.3181 H   0  0  0  0  0  0
  -30.1603  -17.6149  -27.1480 H   0  0  0  0  0  0
  -31.6772  -18.3085  -23.1563 H   0  0  0  0  0  0
  -29.3941  -19.0293  -22.4827 H   0  0  0  0  0  0
  -32.7630  -16.4882  -23.9205 H   0  0  0  0  0  0
  -34.0816  -16.4100  -25.0742 H   0  0  0  0  0  0
  -25.5969  -22.0549  -18.4893 H   0  0  0  0  0  0
  -24.4065  -24.4616  -16.6809 H   0  0  0  0  0  0
  -23.7808  -22.6764  -15.3349 H   0  0  0  0  0  0
  -22.7691  -20.4451  -15.0171 H   0  0  0  0  0  0
  -22.0101  -19.1183  -16.9825 H   0  0  0  0  0  0
  -22.2481  -20.0535  -19.2762 H   0  0  0  0  0  0
  -23.2347  -22.3031  -19.6090 H   0  0  0  0  0  0
  1  2  2  0  0  0
  2  5  1  0  0  0
  2  3  1  0  0  0
  3  4  1  0  0  0
  3 23  1  0  0  0
  3 36  1  0  0  0
  4 12  1  0  0  0
  4  5  1  0  0  0
  4 37  1  0  0  0
  5  6  1  0  0  0
  6  7  1  0  0  0
  6 10  2  0  0  0
  7  8  1  0  0  0
  7  9  2  0  0  0
 10 11  1  0  0  0
 10 13  1  0  0  0
 11 12  1  0  0  0
 11 38  1  0  0  0
 11 39  1  0  0  0
 13 14  1  0  0  0
 13 40  1  0  0  0
 13 41  1  0  0  0
 14 19  1  0  0  0
 14 15  2  0  0  0
 15 16  1  0  0  0
 15 42  1  0  0  0
 16 17  2  0  0  0
 16 43  1  0  0  0
 17 18  1  0  0  0
 17 20  1  0  0  0
 18 19  2  0  0  0
 18 44  1  0  0  0
 19 45  1  0  0  0
 20 21  1  0  0  0
 20 22  2  0  0  0
 21 46  1  0  0  0
 21 47  1  0  0  0
 23 24  1  0  0  0
 23 48  1  0  0  0
 24 25  1  0  0  0
 24 35  2  0  0  0
 25 26  1  0  0  0
 25 32  1  0  0  0
 25 49  1  0  0  0
 26 31  1  0  0  0
 26 27  2  0  0  0
 27 28  1  0  0  0
 27 50  1  0  0  0
 28 29  2  0  0  0
 28 51  1  0  0  0
 29 30  1  0  0  0
 29 52  1  0  0  0
 30 31  2  0  0  0
 30 53  1  0  0  0
 31 54  1  0  0  0
 32 33  1  0  0  0
 32 34  2  0  0  0
M  CHG  3   8  -1  14   1  33  -1
M  END
> <s_m_entry_id>
27295

> <s_m_entry_name>
data_maestro.28

> <s_m_Source_Path>
C:\Users\olshana1\Git\GramNeg-Accumulation\Gram Negative Permeation - OmpF

> <s_m_Source_File>
data_maestro.csv

> <i_m_Source_File_Index>
28

> <s_m_job_name>
glide-dock_Nicaido_neutral

> <s_i_glide_gridfile>
3POX-grid

> <i_i_glide_lignum>
35

> <i_i_glide_rotatable_bonds>
9

> <r_i_docking_score>
-5.66514770609237

> <r_i_glide_ligand_efficiency>
-0.161861363031211

> <r_i_glide_ligand_efficiency_sa>
-0.529459250905127

> <r_i_glide_ligand_efficiency_ln>
-1.2436256526664

> <r_i_glide_gscore>
-5.66514770609237

> <r_i_glide_lipo>
0

> <r_i_glide_hbond>
-0.891228163524671

> <r_i_glide_metal>
0

> <r_i_glide_rewards>
-0.0307466949641157

> <r_i_glide_evdw>
-30.8597526550293

> <r_i_glide_ecoul>
-20.0604667663574

> <r_i_glide_erotb>
0.415177540389138

> <r_i_glide_esite>
-0.606292740287643

> <r_i_glide_emodel>
-86.2680867970098

> <r_i_glide_energy>
-50.9202194213867

> <r_i_glide_einternal>
5.97534704208374

> <i_i_glide_confnum>
25

> <i_i_glide_posenum>
312

> <r_i_glide_eff_state_penalty>
0

> <r_glide_res:A132_vdw>
0.955553134571751

> <r_glide_res:A132_coul>
-52.0684919431968

> <r_glide_res:A132_hbond>
-0.201692778713262

> <r_glide_res:A132_dist>
1.97214111705554

> <r_glide_res:A132_Eint>
-51.3146315873383

> <r_glide_res:A117_vdw>
-2.36707462819294

> <r_glide_res:A117_coul>
-6.51446823211578

> <r_glide_res:A117_hbond>
0

> <r_glide_res:A117_dist>
2.27923729639681

> <r_glide_res:A117_Eint>
-8.88154286030872

> <r_glide_res:A113_vdw>
-2.13429249939401

> <r_glide_res:A113_coul>
10.1001867118836

> <r_glide_res:A113_hbond>
0

> <r_glide_res:A113_dist>
2.87511219894549

> <r_glide_res:A113_Eint>
7.96589421248963

> <r_glide_res:A82_vdw>
-2.11148879740005

> <r_glide_res:A82_coul>
-44.4354622525634

> <r_glide_res:A82_hbond>
-0.0362072934049634

> <r_glide_res:A82_dist>
2.40948176648759

> <r_glide_res:A82_Eint>
-46.5831583433684

> <r_glide_res:A42_vdw>
2.07664346010981

> <r_glide_res:A42_coul>
-42.3947941131677

> <r_glide_res:A42_hbond>
-0.2

> <r_glide_res:A42_dist>
1.62638572907039

> <r_glide_res:A42_Eint>
-40.5181506530579

> <r_glide_res:A16_vdw>
-0.80571054644776

> <r_glide_res:A16_coul>
-14.6156329747321

> <r_glide_res:A16_hbond>
0

> <r_glide_res:A16_dist>
3.36380810233131

> <r_glide_res:A16_Eint>
-15.4213435211799

> <s_m_source_file>
ligprep_Nicaido_neutral.maegz

> <i_m_source_file_index>
28

> <i_lp_mmshare_version>
58128

> <i_f3d_flags>
0

> <s_lp_Force_Field>
S-OPLS

> <r_lp_Energy>
64.89814

> <b_lp_Chiralities_Consistent>
1

> <s_lp_Variant>
SCE-796-1

> <s_epik_input>
W2NIXTFbY0hdW2NIXVtjSF1bY0hdYzFbQ0BIXShDKD1PKVtPSF0pQyg9TylbTkhdW0NAQEhdMkMoPU8pTihbQ0BASF0yMylDKEMoPU8pW09IXSk9QyhbQ0gyXVMzKVtDSDJdW24rXTRbY0hdW2NIXWMoW2NIXVtjSF00KUMoPU8pW05IMl0=

> <s_epik_cmdline>
J2VwaWtfcHl0aG9uJywgJy1waHQnLCAnMC4wJywgJy1waCcsICc3LjQnLCAnLW50JywgJy1tYScsICc1MDAnLCAnLWltYWUnLCAnPGluZmlsZS5tYWU+JywgJy1vbWFlJywgJzxvdXRmaWxlLm1hZT4n

> <r_lp_tautomer_probability>
1

> <r_epik_Ionization_Penalty>
  0.0010

> <r_epik_Ionization_Penalty_Charging>
  0.0001

> <r_epik_Ionization_Penalty_Neutral>
  0.0010

> <r_epik_State_Penalty>
  0.0000

> <r_epik_Charging_Adjusted_Penalty>
5.79311335039239e-05

> <i_epik_Tot_Q>
-1

> <i_epik_Tot_abs_Q>
3

> <s_epik_Chemistry_Notes>
This compound contains an acetal/aminal-like group ( X-CH(R)-Y where X, Y are N, S, or O) that may be acid/base labile, releasing an aldehyde.

> <s_m_subgroup_title>
glide-dock_Nicaido_neutral_pv1

> <s_m_subgroupid>
glide-dock_Nicaido_neutral_pv1

> <b_m_subgroup_collapsed>
0

$$$$
Cephalexin
                    3D
 Schrodinger Suite 2022-2.
 40 42  0  0  1  0            999 V2000
  -31.4940  -20.3688  -23.8000 C   0  0  0  0  0  0
  -30.2349  -20.5872  -22.9704 C   0  0  0  0  0  0
  -29.4538  -21.6966  -23.0482 C   0  0  0  0  0  0
  -28.3400  -21.8977  -22.2171 N   0  0  0  0  0  0
  -28.1647  -21.2221  -20.9437 C   0  0  1  0  0  0
  -26.7664  -21.8762  -20.9129 C   0  0  2  0  0  0
  -27.3628  -22.8391  -21.9698 C   0  0  0  0  0  0
  -27.1489  -23.9500  -22.4129 O   0  0  0  0  0  0
  -26.4618  -22.4913  -19.6219 N   0  0  0  0  0  0
  -25.5527  -23.4608  -19.4349 C   0  0  0  0  0  0
  -25.4250  -24.0275  -18.0132 C   0  0  2  0  0  0
  -24.0991  -23.5718  -17.5014 C   0  0  0  0  0  0
  -24.0344  -22.5211  -16.5553 C   0  0  0  0  0  0
  -22.8083  -22.0924  -16.0134 C   0  0  0  0  0  0
  -21.6100  -22.7089  -16.4135 C   0  0  0  0  0  0
  -21.6465  -23.7554  -17.3523 C   0  0  0  0  0  0
  -22.8791  -24.1813  -17.8849 C   0  0  0  0  0  0
  -25.5691  -25.4869  -18.0142 N   0  0  0  0  0  0
  -24.8978  -23.9495  -20.3586 O   0  0  0  0  0  0
  -28.3483  -19.4460  -21.2133 S   0  0  0  0  0  0
  -29.9873  -19.4458  -21.9862 C   0  0  0  0  0  0
  -29.7642  -22.8965  -23.9936 C   0  0  0  0  0  0
  -29.5179  -22.7490  -25.2136 O   0  5  0  0  0  0
  -30.1107  -23.9493  -23.4148 O   0  0  0  0  0  0
  -32.3581  -20.2839  -23.1404 H   0  0  0  0  0  0
  -31.4095  -19.4393  -24.3635 H   0  0  0  0  0  0
  -31.7005  -21.1660  -24.5119 H   0  0  0  0  0  0
  -28.8677  -21.5925  -20.1915 H   0  0  0  0  0  0
  -25.9815  -21.2136  -21.2825 H   0  0  0  0  0  0
  -26.9718  -22.1424  -18.8215 H   0  0  0  0  0  0
  -26.2316  -23.6043  -17.4117 H   0  0  0  0  0  0
  -24.9438  -22.0383  -16.2241 H   0  0  0  0  0  0
  -22.7922  -21.2919  -15.2871 H   0  0  0  0  0  0
  -20.6683  -22.3758  -16.0025 H   0  0  0  0  0  0
  -20.7287  -24.2283  -17.6681 H   0  0  0  0  0  0
  -22.8927  -24.9873  -18.6037 H   0  0  0  0  0  0
  -26.0974  -25.7311  -17.1782 H   0  0  0  0  0  0
  -26.1484  -25.7723  -18.7887 H   0  0  0  0  0  0
  -30.1176  -18.4860  -22.4871 H   0  0  0  0  0  0
  -30.7430  -19.5009  -21.2029 H   0  0  0  0  0  0
  1  2  1  0  0  0
  1 25  1  0  0  0
  1 26  1  0  0  0
  1 27  1  0  0  0
  2 21  1  0  0  0
  2  3  2  0  0  0
  3  4  1  0  0  0
  3 22  1  0  0  0
  4  7  1  0  0  0
  4  5  1  0  0  0
  5  6  1  0  0  0
  5 20  1  0  0  0
  5 28  1  0  0  0
  6  7  1  0  0  0
  6  9  1  0  0  0
  6 29  1  0  0  0
  7  8  2  0  0  0
  9 10  1  0  0  0
  9 30  1  0  0  0
 10 11  1  0  0  0
 10 19  2  0  0  0
 11 12  1  0  0  0
 11 18  1  0  0  0
 11 31  1  0  0  0
 12 17  1  0  0  0
 12 13  2  0  0  0
 13 14  1  0  0  0
 13 32  1  0  0  0
 14 15  2  0  0  0
 14 33  1  0  0  0
 15 16  1  0  0  0
 15 34  1  0  0  0
 16 17  2  0  0  0
 16 35  1  0  0  0
 17 36  1  0  0  0
 18 37  1  0  0  0
 18 38  1  0  0  0
 20 21  1  0  0  0
 21 39  1  0  0  0
 21 40  1  0  0  0
 22 23  1  0  0  0
 22 24  2  0  0  0
M  CHG  1  23  -1
M  END
> <s_m_entry_id>
27296

> <s_m_entry_name>
data_maestro.14

> <s_m_Source_Path>
C:\Users\olshana1\Git\GramNeg-Accumulation\Gram Negative Permeation - OmpF

> <s_m_Source_File>
data_maestro.csv

> <i_m_Source_File_Index>
14

> <s_m_job_name>
glide-dock_Nicaido_neutral

> <s_i_glide_gridfile>
3POX-grid

> <i_i_glide_lignum>
19

> <i_i_glide_rotatable_bonds>
5

> <r_i_docking_score>
-5.66442200716303

> <r_i_glide_ligand_efficiency>
-0.236017583631793

> <r_i_glide_ligand_efficiency_sa>
-0.680792516434694

> <r_i_glide_ligand_efficiency_ln>
-1.35575610970319

> <r_i_glide_gscore>
-5.77962200716303

> <r_i_glide_lipo>
0

> <r_i_glide_hbond>
-1.19609585695321

> <r_i_glide_metal>
0

> <r_i_glide_rewards>
-1.04739332173624

> <r_i_glide_evdw>
-22.08056640625

> <r_i_glide_ecoul>
-16.8027820587158

> <r_i_glide_erotb>
0.475363118437828

> <r_i_glide_esite>
-0.387050317791537

> <r_i_glide_emodel>
-64.3328511302718

> <r_i_glide_energy>
-38.8833484649658

> <r_i_glide_einternal>
2.07433247566223

> <i_i_glide_confnum>
12

> <i_i_glide_posenum>
266

> <r_i_glide_eff_state_penalty>
0.1152

> <r_glide_res:A132_vdw>
-2.89877275524379

> <r_glide_res:A132_coul>
-33.6699392895666

> <r_glide_res:A132_hbond>
-0.140016433716359

> <r_glide_res:A132_dist>
2.13096589728633

> <r_glide_res:A132_Eint>
-36.7087284785267

> <r_glide_res:A117_vdw>
-1.33339062810605

> <r_glide_res:A117_coul>
23.2582498346073

> <r_glide_res:A117_hbond>
0

> <r_glide_res:A117_dist>
3.20309020845339

> <r_glide_res:A117_Eint>
21.9248592065013

> <r_glide_res:A113_vdw>
-2.72961430156855

> <r_glide_res:A113_coul>
17.8912787672789

> <r_glide_res:A113_hbond>
0

> <r_glide_res:A113_dist>
2.5777890070043

> <r_glide_res:A113_Eint>
15.1616644657103

> <r_glide_res:A82_vdw>
1.37514531585562

> <r_glide_res:A82_coul>
-52.4939164393897

> <r_glide_res:A82_hbond>
-0.313758653852841

> <r_glide_res:A82_dist>
1.80040144378307

> <r_glide_res:A82_Eint>
-51.4325297773869

> <r_glide_res:A42_vdw>
0.256399632581824

> <r_glide_res:A42_coul>
-47.7512311181891

> <r_glide_res:A42_hbond>
-0.2

> <r_glide_res:A42_dist>
1.73604765894655

> <r_glide_res:A42_Eint>
-47.6948314856072

> <r_glide_res:A16_vdw>
-0.442472596886584

> <r_glide_res:A16_coul>
-31.5200247869216

> <r_glide_res:A16_hbond>
0

> <r_glide_res:A16_dist>
3.40102065712705

> <r_glide_res:A16_Eint>
-31.9624973838082

> <s_m_source_file>
ligprep_Nicaido_neutral.maegz

> <i_m_source_file_index>
14

> <i_lp_mmshare_version>
58128

> <i_f3d_flags>
0

> <s_lp_Force_Field>
S-OPLS

> <r_lp_Energy>
47.820483

> <b_lp_Chiralities_Consistent>
1

> <s_lp_Variant>
Cephalexin-1

> <s_epik_input>
W09IXUMoPU8pQzE9QyhbQ0gzXSlbQ0gyXVNbQ0BASF0oTjEyKVtDQEhdKEMyPU8pW05IXUMoPU8pW0NAQEhdKFtOSDJdKWMzW2NIXVtjSF1bY0hdW2NIXVtjSF0z

> <s_epik_cmdline>
J2VwaWtfcHl0aG9uJywgJy1waHQnLCAnMC4wJywgJy1waCcsICc3LjQnLCAnLW50JywgJy1tYScsICc1MDAnLCAnLWltYWUnLCAnPGluZmlsZS5tYWU+JywgJy1vbWFlJywgJzxvdXRmaWxlLm1hZT4n

> <r_epik_Ionization_Penalty>
  0.1152

> <r_epik_Ionization_Penalty_Charging>
  0.0000

> <r_epik_Ionization_Penalty_Neutral>
  0.1152

> <r_epik_State_Penalty>
  0.1152

> <r_epik_Charging_Adjusted_Penalty>
0.115182589938214

> <i_epik_Tot_Q>
-1

> <i_epik_Tot_abs_Q>
1

> <s_epik_Chemistry_Notes>
This compound contains an acetal/aminal-like group ( X-CH(R)-Y where X, Y are N, S, or O) that may be acid/base labile, releasing an aldehyde.

> <s_m_subgroup_title>
glide-dock_Nicaido_neutral_pv1

> <s_m_subgroupid>
glide-dock_Nicaido_neutral_pv1

> <b_m_subgroup_collapsed>
0

$$$$
Imipenem
                    3D
 Schrodinger Suite 2022-2.
 37 38  0  0  1  0            999 V2000
  -22.4081  -19.0456  -27.0632 C   0  0  0  0  0  0
  -22.1626  -20.5359  -26.8006 C   0  0  2  0  0  0
  -22.7996  -21.0171  -25.4943 C   0  0  1  0  0  0
  -24.3227  -20.8563  -25.2829 C   0  0  2  0  0  0
  -24.9788  -20.1829  -24.0649 C   0  0  0  0  0  0
  -25.4504  -21.3504  -23.2290 C   0  0  0  0  0  0
  -26.3137  -21.1252  -21.6914 S   0  0  0  0  0  0
  -26.7306  -19.3661  -21.6359 C   0  0  0  0  0  0
  -27.4332  -18.9885  -20.3241 C   0  0  0  0  0  0
  -28.8916  -19.1053  -20.4187 N   0  3  0  0  0  0
  -29.6407  -18.3300  -21.2213 C   0  0  0  0  0  0
  -30.9790  -18.3929  -21.2134 N   0  0  0  0  0  0
  -25.0367  -22.5141  -23.7425 C   0  0  0  0  0  0
  -24.3194  -22.2602  -24.9058 N   0  0  0  0  0  0
  -23.0882  -22.5486  -25.4576 C   0  0  0  0  0  0
  -22.5474  -23.5908  -25.7631 O   0  0  0  0  0  0
  -25.1674  -23.9495  -23.1396 C   0  0  0  0  0  0
  -24.3233  -24.8025  -23.4984 O   0  5  0  0  0  0
  -26.1641  -24.1698  -22.4132 O   0  0  0  0  0  0
  -20.7672  -20.7495  -26.7577 O   0  0  0  0  0  0
  -23.4731  -18.8181  -27.1144 H   0  0  0  0  0  0
  -21.9682  -18.7469  -28.0131 H   0  0  0  0  0  0
  -21.9785  -18.4198  -26.2800 H   0  0  0  0  0  0
  -22.5544  -21.1063  -27.6442 H   0  0  0  0  0  0
  -22.2627  -20.6600  -24.6135 H   0  0  0  0  0  0
  -24.8756  -20.7256  -26.2168 H   0  0  0  0  0  0
  -24.2639  -19.5805  -23.5035 H   0  0  0  0  0  0
  -25.8101  -19.5421  -24.3608 H   0  0  0  0  0  0
  -25.8208  -18.7753  -21.7453 H   0  0  0  0  0  0
  -27.3623  -19.1497  -22.4968 H   0  0  0  0  0  0
  -27.0634  -19.5854  -19.4899 H   0  0  0  0  0  0
  -27.2083  -17.9495  -20.0834 H   0  0  0  0  0  0
  -29.1690  -17.6226  -21.8892 H   0  0  0  0  0  0
  -31.4222  -18.9856  -20.5157 H   0  0  0  0  0  0
  -31.5234  -17.7206  -21.7399 H   0  0  0  0  0  0
  -20.4102  -20.2590  -26.0334 H   0  0  0  0  0  0
  -29.3811  -19.6115  -19.6779 H   0  0  0  0  0  0
  1  2  1  0  0  0
  1 21  1  0  0  0
  1 22  1  0  0  0
  1 23  1  0  0  0
  2  3  1  0  0  0
  2 20  1  0  0  0
  2 24  1  0  0  0
  3 15  1  0  0  0
  3  4  1  0  0  0
  3 25  1  0  0  0
  4 14  1  0  0  0
  4  5  1  0  0  0
  4 26  1  0  0  0
  5  6  1  0  0  0
  5 27  1  0  0  0
  5 28  1  0  0  0
  6  7  1  0  0  0
  6 13  2  0  0  0
  7  8  1  0  0  0
  8  9  1  0  0  0
  8 29  1  0  0  0
  8 30  1  0  0  0
  9 10  1  0  0  0
  9 31  1  0  0  0
  9 32  1  0  0  0
 10 11  2  3  0  0
 10 37  1  0  0  0
 11 12  1  0  0  0
 11 33  1  0  0  0
 12 34  1  0  0  0
 12 35  1  0  0  0
 13 14  1  0  0  0
 13 17  1  0  0  0
 14 15  1  0  0  0
 15 16  2  0  0  0
 17 18  1  0  0  0
 17 19  2  0  0  0
 20 36  1  0  0  0
M  CHG  2  10   1  18  -1
M  END
> <s_m_entry_id>
27297

> <s_m_entry_name>
data_maestro.12

> <s_m_Source_Path>
C:\Users\olshana1\Git\GramNeg-Accumulation\Gram Negative Permeation - OmpF

> <s_m_Source_File>
data_maestro.csv

> <i_m_Source_File_Index>
12

> <s_m_job_name>
glide-dock_Nicaido_neutral

> <s_i_glide_gridfile>
3POX-grid

> <i_i_glide_lignum>
16

> <i_i_glide_rotatable_bonds>
7

> <r_i_docking_score>
-5.65122358746779

> <r_i_glide_ligand_efficiency>
-0.282561179373389

> <r_i_glide_ligand_efficiency_sa>
-0.766989042291064

> <r_i_glide_ligand_efficiency_ln>
-1.41431487411476

> <r_i_glide_gscore>
-5.65122358746779

> <r_i_glide_lipo>
-0.184214425772716

> <r_i_glide_hbond>
-0.584857685124873

> <r_i_glide_metal>
0

> <r_i_glide_rewards>
-1.88965803395559

> <r_i_glide_evdw>
-18.3957443237305

> <r_i_glide_ecoul>
-17.7008953094482

> <r_i_glide_erotb>
1.02473259195513

> <r_i_glide_esite>
-0.442304521965979

> <r_i_glide_emodel>
-69.1472361454339

> <r_i_glide_energy>
-36.0966396331787

> <r_i_glide_einternal>
2.51584029197693

> <i_i_glide_confnum>
58

> <i_i_glide_posenum>
321

> <r_i_glide_eff_state_penalty>
0

> <r_glide_res:A132_vdw>
-0.353869276356356

> <r_glide_res:A132_coul>
-23.892027892039

> <r_glide_res:A132_hbond>
-0.078735571141963

> <r_glide_res:A132_dist>
2.17168974549126

> <r_glide_res:A132_Eint>
-24.3246327395373

> <r_glide_res:A117_vdw>
-3.22944518220724

> <r_glide_res:A117_coul>
-13.1942474355373

> <r_glide_res:A117_hbond>
0

> <r_glide_res:A117_dist>
2.1999516875487

> <r_glide_res:A117_Eint>
-16.4236926177445

> <r_glide_res:A113_vdw>
0.274474577727783

> <r_glide_res:A113_coul>
-30.8396695907883

> <r_glide_res:A113_hbond>
-0.337342888984109

> <r_glide_res:A113_dist>
1.83886423087369

> <r_glide_res:A113_Eint>
-30.9025379020446

> <r_glide_res:A82_vdw>
1.25219536194163

> <r_glide_res:A82_coul>
-27.866667701694

> <r_glide_res:A82_hbond>
-0.168779224998801

> <r_glide_res:A82_dist>
1.94013205613708

> <r_glide_res:A82_Eint>
-26.7832515647512

> <r_glide_res:A42_vdw>
-1.79284878753247

> <r_glide_res:A42_coul>
-15.3008484926463

> <r_glide_res:A42_hbond>
0

> <r_glide_res:A42_dist>
2.84456040724668

> <r_glide_res:A42_Eint>
-17.0936972801788

> <r_glide_res:A16_vdw>
-0.133058074963718

> <r_glide_res:A16_coul>
0.922350228909351

> <r_glide_res:A16_hbond>
0

> <r_glide_res:A16_dist>
5.75802739557948

> <r_glide_res:A16_Eint>
0.789292153945633

> <s_m_source_file>
ligprep_Nicaido_neutral.maegz

> <i_m_source_file_index>
12

> <i_lp_mmshare_version>
58128

> <i_f3d_flags>
0

> <s_lp_Force_Field>
S-OPLS

> <r_lp_Energy>
18.714001

> <b_lp_Chiralities_Consistent>
1

> <s_lp_Variant>
Imipenem-1

> <s_epik_input>
W0NIM11bQ0BASF0oW09IXSlbQ0BASF0xQyg9TylOKFtDQEhdMTIpQyhDKD1PKVtPSF0pPUMoW0NIMl0yKVNbQ0gyXVtDSDJdL049W0NIXS9bTkgyXQ==

> <s_epik_cmdline>
J2VwaWtfcHl0aG9uJywgJy1waHQnLCAnMC4wJywgJy1waCcsICc3LjQnLCAnLW50JywgJy1tYScsICc1MDAnLCAnLWltYWUnLCAnPGluZmlsZS5tYWU+JywgJy1vbWFlJywgJzxvdXRmaWxlLm1hZT4n

> <r_lp_tautomer_probability>
1

> <r_epik_Ionization_Penalty>
  0.0001

> <r_epik_Ionization_Penalty_Charging>
  0.0001

> <r_epik_Ionization_Penalty_Neutral>
  0.0000

> <r_epik_State_Penalty>
  0.0000

> <r_epik_Charging_Adjusted_Penalty>
9.5675940864495e-05

> <i_epik_Tot_Q>
0

> <i_epik_Tot_abs_Q>
2

> <s_epik_Chemistry_Notes>
This compound has an imine and may undergo hydrolysis.

> <s_m_subgroup_title>
glide-dock_Nicaido_neutral_pv1

> <s_m_subgroupid>
glide-dock_Nicaido_neutral_pv1

> <b_m_subgroup_collapsed>
0

$$$$
Cefamandole
                    3D
 Schrodinger Suite 2022-2.
 48 51  0  0  1  0            999 V2000
  -25.5681  -22.3510  -16.9017 C   0  0  0  0  0  0
  -25.0474  -23.1417  -17.9989 N   0  0  0  0  0  0
  -25.0500  -22.9359  -19.3234 C   0  0  0  0  0  0
  -25.7140  -21.5105  -20.1159 S   0  0  0  0  0  0
  -27.4769  -21.9168  -19.9701 C   0  0  0  0  0  0
  -28.3120  -21.3342  -21.1081 C   0  0  0  0  0  0
  -28.7645  -22.0668  -22.1615 C   0  0  0  0  0  0
  -29.6583  -21.5287  -23.1003 N   0  0  0  0  0  0
  -30.5457  -20.4317  -22.7772 C   0  0  2  0  0  0
  -31.1289  -20.5637  -24.1967 C   0  0  2  0  0  0
  -30.0656  -21.6710  -24.4147 C   0  0  0  0  0  0
  -29.6643  -22.3629  -25.3291 O   0  0  0  0  0  0
  -30.8917  -19.3620  -24.9914 N   0  0  0  0  0  0
  -31.4206  -19.1239  -26.1975 C   0  0  0  0  0  0
  -30.9859  -17.8243  -26.8939 C   0  0  2  0  0  0
  -32.1828  -17.1326  -27.5376 C   0  0  0  0  0  0
  -32.8994  -16.1557  -26.8154 C   0  0  0  0  0  0
  -33.9789  -15.4757  -27.4114 C   0  0  0  0  0  0
  -34.3566  -15.7786  -28.7338 C   0  0  0  0  0  0
  -33.6614  -16.7667  -29.4547 C   0  0  0  0  0  0
  -32.5812  -17.4434  -28.8573 C   0  0  0  0  0  0
  -29.9592  -18.1152  -27.8269 O   0  0  0  0  0  0
  -32.1874  -19.9135  -26.7546 O   0  0  0  0  0  0
  -29.5253  -19.0298  -22.2659 S   0  0  0  0  0  0
  -28.5989  -19.8386  -20.9269 C   0  0  0  0  0  0
  -28.4455  -23.5842  -22.3541 C   0  0  0  0  0  0
  -27.2464  -23.9451  -22.4134 O   0  5  0  0  0  0
  -29.4302  -24.3495  -22.4443 O   0  0  0  0  0  0
  -24.4693  -23.9519  -19.9525 N   0  0  0  0  0  0
  -24.0833  -24.7993  -18.9323 N   0  0  0  0  0  0
  -24.4225  -24.3247  -17.7703 N   0  0  0  0  0  0
  -26.6554  -22.4245  -16.8837 H   0  0  0  0  0  0
  -25.1779  -22.7173  -15.9511 H   0  0  0  0  0  0
  -25.2821  -21.3061  -17.0249 H   0  0  0  0  0  0
  -27.8513  -21.5341  -19.0196 H   0  0  0  0  0  0
  -27.5924  -22.9977  -19.9092 H   0  0  0  0  0  0
  -31.2545  -20.7109  -21.9952 H   0  0  0  0  0  0
  -32.1655  -20.9051  -24.1889 H   0  0  0  0  0  0
  -30.2592  -18.6808  -24.5919 H   0  0  0  0  0  0
  -30.5592  -17.1509  -26.1475 H   0  0  0  0  0  0
  -32.6098  -15.9154  -25.8020 H   0  0  0  0  0  0
  -34.5107  -14.7169  -26.8559 H   0  0  0  0  0  0
  -35.1741  -15.2477  -29.1988 H   0  0  0  0  0  0
  -33.9498  -16.9964  -30.4706 H   0  0  0  0  0  0
  -32.0509  -18.1925  -29.4246 H   0  0  0  0  0  0
  -29.5777  -17.2897  -28.0987 H   0  0  0  0  0  0
  -29.1682  -19.7076  -20.0135 H   0  0  0  0  0  0
  -27.6650  -19.2938  -20.7889 H   0  0  0  0  0  0
  1  2  1  0  0  0
  1 32  1  0  0  0
  1 33  1  0  0  0
  1 34  1  0  0  0
  2 31  1  0  0  0
  2  3  1  0  0  0
  3  4  1  0  0  0
  3 29  2  0  0  0
  4  5  1  0  0  0
  5  6  1  0  0  0
  5 35  1  0  0  0
  5 36  1  0  0  0
  6 25  1  0  0  0
  6  7  2  0  0  0
  7  8  1  0  0  0
  7 26  1  0  0  0
  8 11  1  0  0  0
  8  9  1  0  0  0
  9 10  1  0  0  0
  9 24  1  0  0  0
  9 37  1  0  0  0
 10 11  1  0  0  0
 10 13  1  0  0  0
 10 38  1  0  0  0
 11 12  2  0  0  0
 13 14  1  0  0  0
 13 39  1  0  0  0
 14 15  1  0  0  0
 14 23  2  0  0  0
 15 16  1  0  0  0
 15 22  1  0  0  0
 15 40  1  0  0  0
 16 21  1  0  0  0
 16 17  2  0  0  0
 17 18  1  0  0  0
 17 41  1  0  0  0
 18 19  2  0  0  0
 18 42  1  0  0  0
 19 20  1  0  0  0
 19 43  1  0  0  0
 20 21  2  0  0  0
 20 44  1  0  0  0
 21 45  1  0  0  0
 22 46  1  0  0  0
 24 25  1  0  0  0
 25 47  1  0  0  0
 25 48  1  0  0  0
 26 27  1  0  0  0
 26 28  2  0  0  0
 29 30  1  0  0  0
 30 31  2  0  0  0
M  CHG  1  27  -1
M  END
> <s_m_entry_id>
27298

> <s_m_entry_name>
data_maestro.9

> <s_m_Source_Path>
C:\Users\olshana1\Git\GramNeg-Accumulation\Gram Negative Permeation - OmpF

> <s_m_Source_File>
data_maestro.csv

> <i_m_Source_File_Index>
9

> <s_m_job_name>
glide-dock_Nicaido_neutral

> <s_i_glide_gridfile>
3POX-grid

> <i_i_glide_lignum>
12

> <i_i_glide_rotatable_bonds>
9

> <r_i_docking_score>
-5.65121171971506

> <r_i_glide_ligand_efficiency>
-0.182297152248873

> <r_i_glide_ligand_efficiency_sa>
-0.57266474640515

> <r_i_glide_ligand_efficiency_ln>
-1.27452143163576

> <r_i_glide_gscore>
-5.65121171971506

> <r_i_glide_lipo>
-0.559776960754874

> <r_i_glide_hbond>
-0.563186768566995

> <r_i_glide_metal>
0

> <r_i_glide_rewards>
-0.262521770669991

> <r_i_glide_evdw>
-34.4380760192871

> <r_i_glide_ecoul>
-16.4648036956787

> <r_i_glide_erotb>
0.567285116635731

> <r_i_glide_esite>
-0.641386981042772

> <r_i_glide_emodel>
-80.8209060639766

> <r_i_glide_energy>
-50.9028797149658

> <r_i_glide_einternal>
4.40540790557861

> <i_i_glide_confnum>
56

> <i_i_glide_posenum>
253

> <r_i_glide_eff_state_penalty>
0

> <r_glide_res:A132_vdw>
-2.49362950343893

> <r_glide_res:A132_coul>
-42.2754217057702

> <r_glide_res:A132_hbond>
0

> <r_glide_res:A132_dist>
2.50103259564402

> <r_glide_res:A132_Eint>
-44.7690512092092

> <r_glide_res:A117_vdw>
-2.8283578546345

> <r_glide_res:A117_coul>
19.4254947980879

> <r_glide_res:A117_hbond>
0

> <r_glide_res:A117_dist>
3.00008855329368

> <r_glide_res:A117_Eint>
16.5971369434534

> <r_glide_res:A113_vdw>
-2.25912784654852

> <r_glide_res:A113_coul>
17.9668479468045

> <r_glide_res:A113_hbond>
0

> <r_glide_res:A113_dist>
2.19630322653053

> <r_glide_res:A113_Eint>
15.7077201002559

> <r_glide_res:A82_vdw>
1.39151570594251

> <r_glide_res:A82_coul>
-57.4403138169507

> <r_glide_res:A82_hbond>
-0.4

> <r_glide_res:A82_dist>
1.71618263897258

> <r_glide_res:A82_Eint>
-56.4487981110082

> <r_glide_res:A42_vdw>
-1.14300504714472

> <r_glide_res:A42_coul>
-40.3060329666997

> <r_glide_res:A42_hbond>
-0.16

> <r_glide_res:A42_dist>
1.95044131272458

> <r_glide_res:A42_Eint>
-41.6090380138444

> <r_glide_res:A16_vdw>
-1.12611534116296

> <r_glide_res:A16_coul>
-36.6467804219035

> <r_glide_res:A16_hbond>
-0.00318676856699475

> <r_glide_res:A16_dist>
2.42854387020805

> <r_glide_res:A16_Eint>
-37.7760825316335

> <s_m_source_file>
ligprep_Nicaido_neutral.maegz

> <i_m_source_file_index>
9

> <i_lp_mmshare_version>
58128

> <i_f3d_flags>
0

> <s_lp_Force_Field>
S-OPLS

> <r_lp_Energy>
50.610726

> <b_lp_Chiralities_Consistent>
1

> <s_lp_Variant>
Cefamandole-1

> <s_epik_input>
bjFubmMobjFbQ0gzXSlTW0NIMl1DKD1DMkMoPU8pW09IXSlbQ0gyXVNbQ0BIXShOMjMpW0NASF0oQzM9TylbTkhdQyg9TylbQ0BASF0oW09IXSljNFtjSF1bY0hdW2NIXVtjSF1bY0hdNA==

> <s_epik_cmdline>
J2VwaWtfcHl0aG9uJywgJy1waHQnLCAnMC4wJywgJy1waCcsICc3LjQnLCAnLW50JywgJy1tYScsICc1MDAnLCAnLWltYWUnLCAnPGluZmlsZS5tYWU+JywgJy1vbWFlJywgJzxvdXRmaWxlLm1hZT4n

> <r_lp_tautomer_probability>
1

> <r_epik_Ionization_Penalty>
  0.0002

> <r_epik_Ionization_Penalty_Charging>
  0.0000

> <r_epik_Ionization_Penalty_Neutral>
  0.0002

> <r_epik_State_Penalty>
  0.0000

> <r_epik_Charging_Adjusted_Penalty>
8.65070171415913e-06

> <i_epik_Tot_Q>
-1

> <i_epik_Tot_abs_Q>
1

> <s_epik_Chemistry_Notes>
This compound contains an acetal/aminal-like group ( X-CH(R)-Y where X, Y are N, S, or O) that may be acid/base labile, releasing an aldehyde.

> <s_m_subgroup_title>
glide-dock_Nicaido_neutral_pv1

> <s_m_subgroupid>
glide-dock_Nicaido_neutral_pv1

> <b_m_subgroup_collapsed>
0

$$$$
Moxalactam
                    3D
 Schrodinger Suite 2022-2.
 54 57  0  0  1  0            999 V2000
  -25.5702  -21.0840  -17.4166 C   0  0  0  0  0  0
  -25.9462  -22.2154  -18.2426 N   0  0  0  0  0  0
  -26.7483  -22.3039  -19.3125 C   0  0  0  0  0  0
  -27.5555  -20.9030  -20.0275 S   0  0  0  0  0  0
  -29.0612  -21.6715  -20.7029 C   0  0  0  0  0  0
  -29.4931  -21.0459  -22.0170 C   0  0  0  0  0  0
  -29.4140  -21.6497  -23.2258 C   0  0  0  0  0  0
  -28.8229  -23.0727  -23.5027 C   0  0  0  0  0  0
  -27.9691  -23.1494  -24.4133 O   0  5  0  0  0  0
  -29.2385  -24.0288  -22.8128 O   0  0  0  0  0  0
  -29.8250  -20.9041  -24.3318 N   0  0  0  0  0  0
  -29.9112  -19.4597  -24.2532 C   0  0  2  0  0  0
  -30.7099  -19.1973  -23.1061 O   0  0  0  0  0  0
  -30.0599  -19.6234  -21.9026 C   0  0  0  0  0  0
  -30.6124  -19.4972  -25.6307 C   0  0  1  0  0  0
  -30.2901  -21.0173  -25.6215 C   0  0  0  0  0  0
  -30.3667  -21.9505  -26.3946 O   0  0  0  0  0  0
  -32.0258  -19.1220  -25.5182 N   0  0  0  0  0  0
  -32.9847  -19.1490  -26.4619 C   0  0  0  0  0  0
  -34.4133  -18.6857  -26.0754 C   0  0  2  0  0  0
  -34.5452  -17.1571  -26.2884 C   0  0  0  0  0  0
  -35.5967  -16.7521  -26.8424 O   0  5  0  0  0  0
  -33.6251  -16.4097  -25.8866 O   0  0  0  0  0  0
  -34.8254  -19.0823  -24.6490 C   0  0  0  0  0  0
  -34.2089  -18.5339  -23.4961 C   0  0  0  0  0  0
  -34.5696  -18.9816  -22.2109 C   0  0  0  0  0  0
  -35.5899  -19.9407  -22.0560 C   0  0  0  0  0  0
  -35.9689  -20.3601  -20.8134 O   0  0  0  0  0  0
  -36.2283  -20.4692  -23.1931 C   0  0  0  0  0  0
  -35.8410  -20.0501  -24.4802 C   0  0  0  0  0  0
  -32.7689  -19.5497  -27.6081 O   0  0  0  0  0  0
  -29.8969  -18.8575  -26.6853 O   0  0  0  0  0  0
  -29.8929  -17.4434  -26.6121 C   0  0  0  0  0  0
  -26.7691  -23.5556  -19.7692 N   0  0  0  0  0  0
  -25.9350  -24.2417  -18.9085 N   0  0  0  0  0  0
  -25.4275  -23.4475  -18.0135 N   0  0  0  0  0  0
  -26.4412  -20.4598  -17.2176 H   0  0  0  0  0  0
  -24.8173  -20.4880  -17.9324 H   0  0  0  0  0  0
  -25.1680  -21.4276  -16.4625 H   0  0  0  0  0  0
  -28.9332  -22.7431  -20.7909 H   0  0  0  0  0  0
  -29.8882  -21.5496  -20.0134 H   0  0  0  0  0  0
  -28.9288  -18.9807  -24.2443 H   0  0  0  0  0  0
  -30.7929  -19.5784  -21.0983 H   0  0  0  0  0  0
  -29.2568  -18.9286  -21.6509 H   0  0  0  0  0  0
  -32.2972  -18.7887  -24.6033 H   0  0  0  0  0  0
  -35.0991  -19.1651  -26.7753 H   0  0  0  0  0  0
  -33.4402  -17.7786  -23.5858 H   0  0  0  0  0  0
  -34.0594  -18.5792  -21.3477 H   0  0  0  0  0  0
  -35.4318  -19.9936  -20.1134 H   0  0  0  0  0  0
  -37.0088  -21.2063  -23.0773 H   0  0  0  0  0  0
  -36.3319  -20.4801  -25.3413 H   0  0  0  0  0  0
  -29.1969  -17.0366  -27.3449 H   0  0  0  0  0  0
  -29.5691  -17.1234  -25.6237 H   0  0  0  0  0  0
  -30.8791  -17.0238  -26.8139 H   0  0  0  0  0  0
  1  2  1  0  0  0
  1 37  1  0  0  0
  1 38  1  0  0  0
  1 39  1  0  0  0
  2 36  1  0  0  0
  2  3  1  0  0  0
  3  4  1  0  0  0
  3 34  2  0  0  0
  4  5  1  0  0  0
  5  6  1  0  0  0
  5 40  1  0  0  0
  5 41  1  0  0  0
  6 14  1  0  0  0
  6  7  2  0  0  0
  7  8  1  0  0  0
  7 11  1  0  0  0
  8  9  1  0  0  0
  8 10  2  0  0  0
 11 16  1  0  0  0
 11 12  1  0  0  0
 12 13  1  0  0  0
 12 15  1  0  0  0
 12 42  1  0  0  0
 13 14  1  0  0  0
 14 43  1  0  0  0
 14 44  1  0  0  0
 15 16  1  0  0  0
 15 18  1  0  0  0
 15 32  1  0  0  0
 16 17  2  0  0  0
 18 19  1  0  0  0
 18 45  1  0  0  0
 19 20  1  0  0  0
 19 31  2  0  0  0
 20 21  1  0  0  0
 20 24  1  0  0  0
 20 46  1  0  0  0
 21 22  1  0  0  0
 21 23  2  0  0  0
 24 30  1  0  0  0
 24 25  2  0  0  0
 25 26  1  0  0  0
 25 47  1  0  0  0
 26 27  2  0  0  0
 26 48  1  0  0  0
 27 28  1  0  0  0
 27 29  1  0  0  0
 28 49  1  0  0  0
 29 30  2  0  0  0
 29 50  1  0  0  0
 30 51  1  0  0  0
 32 33  1  0  0  0
 33 52  1  0  0  0
 33 53  1  0  0  0
 33 54  1  0  0  0
 34 35  1  0  0  0
 35 36  2  0  0  0
M  CHG  2   9  -1  22  -1
M  END
> <s_m_entry_id>
27299

> <s_m_entry_name>
data_maestro.20

> <s_m_Source_Path>
C:\Users\olshana1\Git\GramNeg-Accumulation\Gram Negative Permeation - OmpF

> <s_m_Source_File>
data_maestro.csv

> <i_m_Source_File_Index>
20

> <s_m_job_name>
glide-dock_Nicaido_neutral

> <s_i_glide_gridfile>
3POX-grid

> <i_i_glide_lignum>
25

> <i_i_glide_rotatable_bonds>
11

> <r_i_docking_score>
-5.6502305604538

> <r_i_glide_ligand_efficiency>
-0.156950848901495

> <r_i_glide_ligand_efficiency_sa>
-0.518240284105947

> <r_i_glide_ligand_efficiency_ln>
-1.23272765670234

> <r_i_glide_gscore>
-5.6502305604538

> <r_i_glide_lipo>
0

> <r_i_glide_hbond>
-1.12024710774357

> <r_i_glide_metal>
0

> <r_i_glide_rewards>
3.31355536878867e-06

> <r_i_glide_evdw>
-29.6789989471436

> <r_i_glide_ecoul>
-18.4415264129639

> <r_i_glide_erotb>
0.534860792752126

> <r_i_glide_esite>
-0.814668649715974

> <r_i_glide_emodel>
-85.8056651425219

> <r_i_glide_energy>
-48.1205253601074

> <r_i_glide_einternal>
3.96255445480347

> <i_i_glide_confnum>
184

> <i_i_glide_posenum>
319

> <r_i_glide_eff_state_penalty>
0

> <r_glide_res:A132_vdw>
-2.08570018193554

> <r_glide_res:A132_coul>
-49.3543667685599

> <r_glide_res:A132_hbond>
0

> <r_glide_res:A132_dist>
2.49014057373546

> <r_glide_res:A132_Eint>
-51.4400669504954

> <r_glide_res:A117_vdw>
-3.15093216541561

> <r_glide_res:A117_coul>
38.6376455972935

> <r_glide_res:A117_hbond>
0

> <r_glide_res:A117_dist>
2.04249975693177

> <r_glide_res:A117_Eint>
35.4867134318779

> <r_glide_res:A113_vdw>
-2.76252704275157

> <r_glide_res:A113_coul>
31.7721336239852

> <r_glide_res:A113_hbond>
-0.32

> <r_glide_res:A113_dist>
1.7423316111232

> <r_glide_res:A113_Eint>
28.6896065812336

> <r_glide_res:A82_vdw>
0.215828513920879

> <r_glide_res:A82_coul>
-65.6198262488018

> <r_glide_res:A82_hbond>
-0.221801274353836

> <r_glide_res:A82_dist>
1.81212083343608

> <r_glide_res:A82_Eint>
-65.6257990092348

> <r_glide_res:A42_vdw>
-1.1584864233896

> <r_glide_res:A42_coul>
-63.9455588818161

> <r_glide_res:A42_hbond>
-0.233281896739214

> <r_glide_res:A42_dist>
2.07434016515657

> <r_glide_res:A42_Eint>
-65.3373272019449

> <r_glide_res:A16_vdw>
0.250448202221885

> <r_glide_res:A16_coul>
-67.5084373302615

> <r_glide_res:A16_hbond>
-0.189141788460943

> <r_glide_res:A16_dist>
1.89861130923471

> <r_glide_res:A16_Eint>
-67.4471309165006

> <s_m_source_file>
ligprep_Nicaido_neutral.maegz

> <i_m_source_file_index>
20

> <i_lp_mmshare_version>
58128

> <i_f3d_flags>
0

> <s_lp_Force_Field>
S-OPLS

> <r_lp_Energy>
52.146636

> <b_lp_Chiralities_Consistent>
1

> <s_lp_Variant>
Moxalactam-1

> <s_epik_input>
bjFubmMobjFbQ0gzXSlTW0NIMl1DKD1DMkMoPU8pW09IXSlbQ0gyXU9bQ0BASF0oTjIzKVtDQF0oQzM9TykoT1tDSDNdKVtOSF1DKD1PKVtDQEhdKEMoPU8pW09IXSljNFtjSF1bY0hdYyhbT0hdKVtjSF1bY0hdNA==

> <s_epik_cmdline>
J2VwaWtfcHl0aG9uJywgJy1waHQnLCAnMC4wJywgJy1waCcsICc3LjQnLCAnLW50JywgJy1tYScsICc1MDAnLCAnLWltYWUnLCAnPGluZmlsZS5tYWU+JywgJy1vbWFlJywgJzxvdXRmaWxlLm1hZT4n

> <r_lp_tautomer_probability>
1

> <r_epik_Ionization_Penalty>
  0.0029

> <r_epik_Ionization_Penalty_Charging>
  0.0001

> <r_epik_Ionization_Penalty_Neutral>
  0.0029

> <r_epik_State_Penalty>
  0.0000

> <r_epik_Charging_Adjusted_Penalty>
5.78268703870383e-05

> <i_epik_Tot_Q>
-2

> <i_epik_Tot_abs_Q>
2

> <s_epik_Chemistry_Notes>
This compound contains an acetal/aminal-like group ( X-CH(R)-Y where X, Y are N, S, or O) that may be acid/base labile, releasing an aldehyde.

> <s_m_subgroup_title>
glide-dock_Nicaido_neutral_pv1

> <s_m_subgroupid>
glide-dock_Nicaido_neutral_pv1

> <b_m_subgroup_collapsed>
0

$$$$
Nocardicin B
                    3D
 Schrodinger Suite 2022-2.
 59 61  0  0  1  0            999 V2000
  -30.4409  -21.1644  -26.0135 O   0  0  0  0  0  0
  -30.3550  -20.2258  -25.2496 C   0  0  0  0  0  0
  -29.4968  -19.8913  -24.0173 C   0  0  2  0  0  0
  -30.2091  -18.5360  -24.0484 C   0  0  0  0  0  0
  -31.0314  -19.0275  -25.1633 N   0  0  0  0  0  0
  -32.1248  -18.3791  -25.8995 C   0  0  2  0  0  0
  -33.3059  -18.1915  -24.9928 C   0  0  0  0  0  0
  -34.0186  -16.9688  -24.9949 C   0  0  0  0  0  0
  -35.1117  -16.7508  -24.1332 C   0  0  0  0  0  0
  -35.5210  -17.7586  -23.2423 C   0  0  0  0  0  0
  -34.8283  -18.9821  -23.2170 C   0  0  0  0  0  0
  -33.7384  -19.1901  -24.0841 C   0  0  0  0  0  0
  -36.5853  -17.5505  -22.4144 O   0  0  0  0  0  0
  -32.6248  -19.1489  -27.1469 C   0  0  0  0  0  0
  -33.1721  -20.2660  -27.0044 O   0  5  0  0  0  0
  -32.3693  -18.6495  -28.2660 O   0  0  0  0  0  0
  -28.0568  -19.7435  -24.2442 N   0  0  0  0  0  0
  -27.2428  -20.5555  -24.9448 C   0  0  0  0  0  0
  -25.8018  -20.1573  -24.8274 C   0  0  0  0  0  0
  -25.3327  -20.1346  -23.4177 C   0  0  0  0  0  0
  -25.0707  -18.9373  -22.7186 C   0  0  0  0  0  0
  -24.7459  -18.9735  -21.3467 C   0  0  0  0  0  0
  -24.6863  -20.1985  -20.6500 C   0  0  0  0  0  0
  -24.8853  -21.3998  -21.3710 C   0  0  0  0  0  0
  -25.2065  -21.3638  -22.7369 C   0  0  0  0  0  0
  -24.4606  -20.1571  -19.2894 O   0  0  0  0  0  0
  -24.8665  -21.2794  -18.5085 C   0  0  0  0  0  0
  -26.4064  -21.3884  -18.4550 C   0  0  0  0  0  0
  -26.9373  -22.7427  -17.9399 C   0  0  2  0  0  0
  -26.7451  -23.8695  -18.9781 C   0  0  0  0  0  0
  -27.5523  -23.9494  -19.9338 O   0  5  0  0  0  0
  -25.7868  -24.6554  -18.8131 O   0  0  0  0  0  0
  -28.3690  -22.6261  -17.6137 N   0  3  0  0  0  0
  -25.1022  -19.9501  -25.8672 N   0  0  0  0  0  0
  -23.8104  -19.4749  -25.4975 O   0  0  0  0  0  0
  -27.5849  -21.5452  -25.5981 O   0  0  0  0  0  0
  -29.7432  -20.4695  -23.1258 H   0  0  0  0  0  0
  -30.7768  -18.3211  -23.1403 H   0  0  0  0  0  0
  -29.5738  -17.6890  -24.3156 H   0  0  0  0  0  0
  -31.7476  -17.4096  -26.2292 H   0  0  0  0  0  0
  -33.7161  -16.1776  -25.6641 H   0  0  0  0  0  0
  -35.6315  -15.8034  -24.1527 H   0  0  0  0  0  0
  -35.1285  -19.7676  -22.5384 H   0  0  0  0  0  0
  -33.2253  -20.1399  -24.0547 H   0  0  0  0  0  0
  -36.7381  -18.2624  -21.8109 H   0  0  0  0  0  0
  -27.6247  -18.9539  -23.7806 H   0  0  0  0  0  0
  -25.1590  -17.9795  -23.2139 H   0  0  0  0  0  0
  -24.5878  -18.0474  -20.8160 H   0  0  0  0  0  0
  -24.8319  -22.3664  -20.8984 H   0  0  0  0  0  0
  -25.3925  -22.2925  -23.2549 H   0  0  0  0  0  0
  -24.4932  -21.1323  -17.4950 H   0  0  0  0  0  0
  -24.3832  -22.1935  -18.8507 H   0  0  0  0  0  0
  -26.8444  -21.1978  -19.4350 H   0  0  0  0  0  0
  -26.7765  -20.5820  -17.8205 H   0  0  0  0  0  0
  -26.4188  -23.0044  -17.0162 H   0  0  0  0  0  0
  -28.7034  -23.5135  -17.2694 H   0  0  0  0  0  0
  -28.4986  -21.9154  -16.9073 H   0  0  0  0  0  0
  -23.9690  -18.5309  -25.4594 H   0  0  0  0  0  0
  -28.9004  -22.3748  -18.4376 H   0  0  0  0  0  0
  1  2  2  0  0  0
  2  5  1  0  0  0
  2  3  1  0  0  0
  3  4  1  0  0  0
  3 17  1  0  0  0
  3 37  1  0  0  0
  4  5  1  0  0  0
  4 38  1  0  0  0
  4 39  1  0  0  0
  5  6  1  0  0  0
  6  7  1  0  0  0
  6 14  1  0  0  0
  6 40  1  0  0  0
  7 12  1  0  0  0
  7  8  2  0  0  0
  8  9  1  0  0  0
  8 41  1  0  0  0
  9 10  2  0  0  0
  9 42  1  0  0  0
 10 11  1  0  0  0
 10 13  1  0  0  0
 11 12  2  0  0  0
 11 43  1  0  0  0
 12 44  1  0  0  0
 13 45  1  0  0  0
 14 15  1  0  0  0
 14 16  2  0  0  0
 17 18  1  0  0  0
 17 46  1  0  0  0
 18 19  1  0  0  0
 18 36  2  0  0  0
 19 20  1  0  0  0
 19 34  2  3  0  0
 20 25  1  0  0  0
 20 21  2  0  0  0
 21 22  1  0  0  0
 21 47  1  0  0  0
 22 23  2  0  0  0
 22 48  1  0  0  0
 23 24  1  0  0  0
 23 26  1  0  0  0
 24 25  2  0  0  0
 24 49  1  0  0  0
 25 50  1  0  0  0
 26 27  1  0  0  0
 27 28  1  0  0  0
 27 51  1  0  0  0
 27 52  1  0  0  0
 28 29  1  0  0  0
 28 53  1  0  0  0
 28 54  1  0  0  0
 29 30  1  0  0  0
 29 33  1  0  0  0
 29 55  1  0  0  0
 30 31  1  0  0  0
 30 32  2  0  0  0
 33 56  1  0  0  0
 33 57  1  0  0  0
 33 59  1  0  0  0
 34 35  1  0  0  0
 35 58  1  0  0  0
M  CHG  3  15  -1  31  -1  33   1
M  END
> <s_m_entry_id>
27300

> <s_m_entry_name>
data_maestro.29

> <s_m_Source_Path>
C:\Users\olshana1\Git\GramNeg-Accumulation\Gram Negative Permeation - OmpF

> <s_m_Source_File>
data_maestro.csv

> <i_m_Source_File_Index>
29

> <s_m_job_name>
glide-dock_Nicaido_neutral

> <s_i_glide_gridfile>
3POX-grid

> <i_i_glide_lignum>
36

> <i_i_glide_rotatable_bonds>
14

> <r_i_docking_score>
-5.64539198290787

> <r_i_glide_ligand_efficiency>
-0.156816443969663

> <r_i_glide_ligand_efficiency_sa>
-0.517796488799677

> <r_i_glide_ligand_efficiency_ln>
-1.23167200980508

> <r_i_glide_gscore>
-5.64539198290787

> <r_i_glide_lipo>
-0.0572908616530135

> <r_i_glide_hbond>
-0.737889351295828

> <r_i_glide_metal>
0

> <r_i_glide_rewards>
0.0354381338152985

> <r_i_glide_evdw>
-30.8757495880127

> <r_i_glide_ecoul>
-22.8031387329102

> <r_i_glide_erotb>
0.900147327125679

> <r_i_glide_esite>
-0.821538941562847

> <r_i_glide_emodel>
-82.4754066220334

> <r_i_glide_energy>
-53.6788883209229

> <r_i_glide_einternal>
17.9421977996826

> <i_i_glide_confnum>
773

> <i_i_glide_posenum>
220

> <r_i_glide_eff_state_penalty>
0

> <r_glide_res:A132_vdw>
-0.380616769380167

> <r_glide_res:A132_coul>
-36.2456829933372

> <r_glide_res:A132_hbond>
-0.240184977661581

> <r_glide_res:A132_dist>
1.95876968532304

> <r_glide_res:A132_Eint>
-36.8664847403789

> <r_glide_res:A117_vdw>
-5.9286656897374

> <r_glide_res:A117_coul>
8.87310916128472

> <r_glide_res:A117_hbond>
-0.16

> <r_glide_res:A117_dist>
1.84031709791603

> <r_glide_res:A117_Eint>
2.78444347154731

> <r_glide_res:A113_vdw>
-1.74347730305452

> <r_glide_res:A113_coul>
-7.23041134046146

> <r_glide_res:A113_hbond>
-0.018075351066328

> <r_glide_res:A113_dist>
2.39391460796459

> <r_glide_res:A113_Eint>
-8.99196399458231

> <r_glide_res:A82_vdw>
-0.87427105890476

> <r_glide_res:A82_coul>
-28.8725147847368

> <r_glide_res:A82_hbond>
0

> <r_glide_res:A82_dist>
3.49285335321832

> <r_glide_res:A82_Eint>
-29.7467858436415

> <r_glide_res:A42_vdw>
0.561893960998204

> <r_glide_res:A42_coul>
-40.1391295174037

> <r_glide_res:A42_hbond>
-0.16

> <r_glide_res:A42_dist>
1.7297731587739

> <r_glide_res:A42_Eint>
-39.7372355564055

> <r_glide_res:A16_vdw>
-0.695187359327697

> <r_glide_res:A16_coul>
-64.0100031653848

> <r_glide_res:A16_hbond>
-0.159629022567919

> <r_glide_res:A16_dist>
2.11121576213993

> <r_glide_res:A16_Eint>
-64.8648195472804

> <s_m_source_file>
ligprep_Nicaido_neutral.maegz

> <i_m_source_file_index>
29

> <i_lp_mmshare_version>
58128

> <i_f3d_flags>
0

> <s_lp_Force_Field>
S-OPLS

> <r_lp_Energy>
60.848016

> <b_lp_Chiralities_Consistent>
1

> <s_lp_Variant>
Nocardicin B-1

> <s_epik_input>
W2NIXTFbY0hdYyhbT0hdKVtjSF1bY0hdYzFbQ0BIXShDKD1PKVtPSF0pTjJbQ0gyXVtDQEBIXShDMj1PKVtOSF1DKD1PKS9DKD1OL1tPSF0pYzNbY0hdW2NIXWMoW2NIXVtjSF0zKU9bQ0gyXVtDSDJdW0NAQEhdKFtOSDJdKUMoPU8pW09IXQ==

> <s_epik_cmdline>
J2VwaWtfcHl0aG9uJywgJy1waHQnLCAnMC4wJywgJy1waCcsICc3LjQnLCAnLW50JywgJy1tYScsICc1MDAnLCAnLWltYWUnLCAnPGluZmlsZS5tYWU+JywgJy1vbWFlJywgJzxvdXRmaWxlLm1hZT4n

> <r_lp_tautomer_probability>
1

> <r_epik_Ionization_Penalty>
  0.0116

> <r_epik_Ionization_Penalty_Charging>
  0.0086

> <r_epik_Ionization_Penalty_Neutral>
  0.0030

> <r_epik_State_Penalty>
  0.0000

> <r_epik_Charging_Adjusted_Penalty>
0.0085560600321308

> <i_epik_Tot_Q>
-1

> <i_epik_Tot_abs_Q>
3

> <s_epik_Chemistry_Notes>
This compound has an imine and may undergo hydrolysis.

> <s_m_subgroup_title>
glide-dock_Nicaido_neutral_pv1

> <s_m_subgroupid>
glide-dock_Nicaido_neutral_pv1

> <b_m_subgroup_collapsed>
0

$$$$
Cefoperazone
                    3D
 Schrodinger Suite 2022-2.
 70 74  0  0  1  0            999 V2000
  -38.0434  -23.8416  -18.0517 C   0  0  0  0  0  0
  -36.5396  -23.5890  -18.2293 C   0  0  0  0  0  0
  -36.1977  -23.2734  -19.6134 N   0  0  0  0  0  0
  -36.0856  -21.8506  -19.9230 C   0  0  0  0  0  0
  -36.4899  -21.5975  -21.3798 C   0  0  0  0  0  0
  -35.7066  -22.4472  -22.3059 N   0  0  0  0  0  0
  -35.4265  -23.7443  -21.9344 C   0  0  0  0  0  0
  -35.9129  -24.2280  -20.5266 C   0  0  0  0  0  0
  -35.9945  -25.4385  -20.3000 O   0  0  0  0  0  0
  -34.8276  -24.5743  -22.6294 O   0  0  0  0  0  0
  -35.3378  -21.8595  -23.4872 C   0  0  0  0  0  0
  -34.3053  -22.4197  -24.1412 N   0  0  0  0  0  0
  -33.7943  -22.0416  -25.4570 C   0  0  2  0  0  0
  -33.4401  -23.2937  -26.2113 C   0  0  0  0  0  0
  -32.9236  -24.4567  -25.5783 C   0  0  0  0  0  0
  -32.5959  -25.6138  -26.3083 C   0  0  0  0  0  0
  -32.7541  -25.6316  -27.7030 C   0  0  0  0  0  0
  -33.2474  -24.4910  -28.3601 C   0  0  0  0  0  0
  -33.5939  -23.3445  -27.6179 C   0  0  0  0  0  0
  -32.4304  -26.7495  -28.4135 O   0  0  0  0  0  0
  -32.4558  -21.2808  -25.3821 C   0  0  0  0  0  0
  -31.8763  -21.1232  -24.1834 N   0  0  0  0  0  0
  -30.5178  -20.6232  -24.0044 C   0  0  1  0  0  0
  -30.0399  -20.7564  -22.5493 C   0  0  1  0  0  0
  -28.8961  -21.4813  -23.0700 N   0  0  0  0  0  0
  -29.4551  -21.7041  -24.3173 C   0  0  0  0  0  0
  -29.2173  -22.4882  -25.2127 O   0  0  0  0  0  0
  -27.8799  -21.9657  -22.2258 C   0  0  0  0  0  0
  -27.0523  -23.1496  -22.8132 C   0  0  0  0  0  0
  -26.4641  -22.9600  -23.9013 O   0  5  0  0  0  0
  -27.1668  -24.2452  -22.2138 O   0  0  0  0  0  0
  -27.6287  -21.4276  -21.0001 C   0  0  0  0  0  0
  -28.4680  -20.2986  -20.3965 C   0  0  0  0  0  0
  -29.4124  -19.3420  -21.6135 S   0  0  0  0  0  0
  -26.5190  -21.9143  -20.0675 C   0  0  0  0  0  0
  -27.1338  -22.9224  -18.6862 S   0  0  0  0  0  0
  -25.5926  -23.6370  -18.2163 C   0  0  0  0  0  0
  -25.0828  -24.7481  -18.7411 N   0  0  0  0  0  0
  -23.8802  -24.9060  -18.0797 N   0  0  0  0  0  0
  -23.6873  -23.9532  -17.2136 N   0  0  0  0  0  0
  -24.7688  -23.1376  -17.2830 N   0  0  0  0  0  0
  -24.8631  -21.9745  -16.4221 C   0  0  0  0  0  0
  -31.9391  -20.8534  -26.4133 O   0  0  0  0  0  0
  -35.8682  -20.8357  -23.9209 O   0  0  0  0  0  0
  -38.2796  -24.0428  -17.0056 H   0  0  0  0  0  0
  -38.3775  -24.6979  -18.6417 H   0  0  0  0  0  0
  -38.6243  -22.9705  -18.3626 H   0  0  0  0  0  0
  -36.2244  -22.7500  -17.6131 H   0  0  0  0  0  0
  -35.9694  -24.4520  -17.8772 H   0  0  0  0  0  0
  -36.7078  -21.2469  -19.2571 H   0  0  0  0  0  0
  -35.0503  -21.5498  -19.7553 H   0  0  0  0  0  0
  -37.5533  -21.8019  -21.5188 H   0  0  0  0  0  0
  -36.3566  -20.5285  -21.5604 H   0  0  0  0  0  0
  -33.9554  -23.2862  -23.7496 H   0  0  0  0  0  0
  -34.5232  -21.4429  -26.0089 H   0  0  0  0  0  0
  -32.7701  -24.4774  -24.5095 H   0  0  0  0  0  0
  -32.2220  -26.4881  -25.7951 H   0  0  0  0  0  0
  -33.3777  -24.4994  -29.4315 H   0  0  0  0  0  0
  -33.9803  -22.4813  -28.1416 H   0  0  0  0  0  0
  -32.3711  -27.5357  -27.8735 H   0  0  0  0  0  0
  -32.3690  -21.4517  -23.3648 H   0  0  0  0  0  0
  -30.3309  -19.6368  -24.4317 H   0  0  0  0  0  0
  -30.6647  -21.3996  -21.9236 H   0  0  0  0  0  0
  -29.1638  -20.7502  -19.6877 H   0  0  0  0  0  0
  -27.8393  -19.6062  -19.8372 H   0  0  0  0  0  0
  -25.7646  -22.4828  -20.6107 H   0  0  0  0  0  0
  -25.9880  -21.0513  -19.6635 H   0  0  0  0  0  0
  -25.5847  -21.2597  -16.8160 H   0  0  0  0  0  0
  -25.1713  -22.2825  -15.4228 H   0  0  0  0  0  0
  -23.8927  -21.4828  -16.3526 H   0  0  0  0  0  0
  1  2  1  0  0  0
  1 45  1  0  0  0
  1 46  1  0  0  0
  1 47  1  0  0  0
  2  3  1  0  0  0
  2 48  1  0  0  0
  2 49  1  0  0  0
  3  8  1  0  0  0
  3  4  1  0  0  0
  4  5  1  0  0  0
  4 50  1  0  0  0
  4 51  1  0  0  0
  5  6  1  0  0  0
  5 52  1  0  0  0
  5 53  1  0  0  0
  6  7  1  0  0  0
  6 11  1  0  0  0
  7  8  1  0  0  0
  7 10  2  0  0  0
  8  9  2  0  0  0
 11 12  1  0  0  0
 11 44  2  0  0  0
 12 13  1  0  0  0
 12 54  1  0  0  0
 13 14  1  0  0  0
 13 21  1  0  0  0
 13 55  1  0  0  0
 14 19  1  0  0  0
 14 15  2  0  0  0
 15 16  1  0  0  0
 15 56  1  0  0  0
 16 17  2  0  0  0
 16 57  1  0  0  0
 17 18  1  0  0  0
 17 20  1  0  0  0
 18 19  2  0  0  0
 18 58  1  0  0  0
 19 59  1  0  0  0
 20 60  1  0  0  0
 21 22  1  0  0  0
 21 43  2  0  0  0
 22 23  1  0  0  0
 22 61  1  0  0  0
 23 26  1  0  0  0
 23 24  1  0  0  0
 23 62  1  0  0  0
 24 34  1  0  0  0
 24 25  1  0  0  0
 24 63  1  0  0  0
 25 26  1  0  0  0
 25 28  1  0  0  0
 26 27  2  0  0  0
 28 29  1  0  0  0
 28 32  2  0  0  0
 29 30  1  0  0  0
 29 31  2  0  0  0
 32 33  1  0  0  0
 32 35  1  0  0  0
 33 34  1  0  0  0
 33 64  1  0  0  0
 33 65  1  0  0  0
 35 36  1  0  0  0
 35 66  1  0  0  0
 35 67  1  0  0  0
 36 37  1  0  0  0
 37 41  1  0  0  0
 37 38  2  0  0  0
 38 39  1  0  0  0
 39 40  2  0  0  0
 40 41  1  0  0  0
 41 42  1  0  0  0
 42 68  1  0  0  0
 42 69  1  0  0  0
 42 70  1  0  0  0
M  CHG  1  30  -1
M  END
> <s_m_entry_id>
27301

> <s_m_entry_name>
data_maestro.8

> <s_m_Source_Path>
C:\Users\olshana1\Git\GramNeg-Accumulation\Gram Negative Permeation - OmpF

> <s_m_Source_File>
data_maestro.csv

> <i_m_Source_File_Index>
8

> <s_m_job_name>
glide-dock_Nicaido_neutral

> <s_i_glide_gridfile>
3POX-grid

> <i_i_glide_lignum>
11

> <i_i_glide_rotatable_bonds>
13

> <r_i_docking_score>
-5.64266747816788

> <r_i_glide_ligand_efficiency>
-0.128242442685634

> <r_i_glide_ligand_efficiency_sa>
-0.45274049348229

> <r_i_glide_ligand_efficiency_ln>
-1.17944059703723

> <r_i_glide_gscore>
-5.64266747816788

> <r_i_glide_lipo>
-0.139040287724363

> <r_i_glide_hbond>
-0.647608379928121

> <r_i_glide_metal>
0

> <r_i_glide_rewards>
0.00480364685128144

> <r_i_glide_evdw>
-40.0101661682129

> <r_i_glide_ecoul>
-16.9583473205566

> <r_i_glide_erotb>
0.362700252817045

> <r_i_glide_esite>
-0.679262303689582

> <r_i_glide_emodel>
-89.0088470176861

> <r_i_glide_energy>
-56.9685134887695

> <r_i_glide_einternal>
5.57133960723877

> <i_i_glide_confnum>
371

> <i_i_glide_posenum>
182

> <r_i_glide_eff_state_penalty>
0

> <r_glide_res:A132_vdw>
-1.93114027623581

> <r_glide_res:A132_coul>
-41.7647186680164

> <r_glide_res:A132_hbond>
-0.0380282624273545

> <r_glide_res:A132_dist>
2.31440175135194

> <r_glide_res:A132_Eint>
-43.7338872066796

> <r_glide_res:A117_vdw>
-1.76066201632201

> <r_glide_res:A117_coul>
24.5942898311604

> <r_glide_res:A117_hbond>
0

> <r_glide_res:A117_dist>
3.49714000727545

> <r_glide_res:A117_Eint>
22.8336278148384

> <r_glide_res:A113_vdw>
-3.67459406453571

> <r_glide_res:A113_coul>
14.1338609829542

> <r_glide_res:A113_hbond>
0

> <r_glide_res:A113_dist>
2.18891873571788

> <r_glide_res:A113_Eint>
10.4592669184185

> <r_glide_res:A82_vdw>
-0.570500431804103

> <r_glide_res:A82_coul>
-47.1594820855264

> <r_glide_res:A82_hbond>
-0.21961274441056

> <r_glide_res:A82_dist>
1.75609903668189

> <r_glide_res:A82_Eint>
-47.9495952617411

> <r_glide_res:A42_vdw>
-1.90845277562521

> <r_glide_res:A42_coul>
-49.0396612350301

> <r_glide_res:A42_hbond>
-0.224073729956524

> <r_glide_res:A42_dist>
1.84069265147921

> <r_glide_res:A42_Eint>
-51.1721877406118

> <r_glide_res:A16_vdw>
-1.62539505569405

> <r_glide_res:A16_coul>
-34.9567469454023

> <r_glide_res:A16_hbond>
-0.00589364313368291

> <r_glide_res:A16_dist>
2.39091816145643

> <r_glide_res:A16_Eint>
-36.5880356442301

> <s_m_source_file>
ligprep_Nicaido_neutral.maegz

> <i_m_source_file_index>
8

> <i_lp_mmshare_version>
58128

> <i_f3d_flags>
0

> <s_lp_Force_Field>
S-OPLS

> <r_lp_Energy>
85.319288

> <b_lp_Chiralities_Consistent>
1

> <s_lp_Variant>
Cefoperazone-1

> <s_epik_input>
W0NIM11bQ0gyXU4xW0NIMl1bQ0gyXU4oQyg9TylDMT1PKUMoPU8pW05IXVtDQEhdKGMyW2NIXVtjSF1jKFtPSF0pW2NIXVtjSF0yKUMoPU8pW05IXVtDQEBIXTNDKD1PKU4oW0NASF0zNClDKEMoPU8pW09IXSk9QyhbQ0gyXVM0KVtDSDJdU2M1bm5ubjVbQ0gzXQ==

> <s_epik_cmdline>
J2VwaWtfcHl0aG9uJywgJy1waHQnLCAnMC4wJywgJy1waCcsICc3LjQnLCAnLW50JywgJy1tYScsICc1MDAnLCAnLWltYWUnLCAnPGluZmlsZS5tYWU+JywgJy1vbWFlJywgJzxvdXRmaWxlLm1hZT4n

> <r_lp_tautomer_probability>
1

> <r_epik_Ionization_Penalty>
  0.0158

> <r_epik_Ionization_Penalty_Charging>
  0.0000

> <r_epik_Ionization_Penalty_Neutral>
  0.0158

> <r_epik_State_Penalty>
  0.0000

> <r_epik_Charging_Adjusted_Penalty>
8.23416745038905e-06

> <i_epik_Tot_Q>
-1

> <i_epik_Tot_abs_Q>
1

> <s_epik_Chemistry_Notes>
This compound contains an acetal/aminal-like group ( X-CH(R)-Y where X, Y are N, S, or O) that may be acid/base labile, releasing an aldehyde.

> <s_m_subgroup_title>
glide-dock_Nicaido_neutral_pv1

> <s_m_subgroupid>
glide-dock_Nicaido_neutral_pv1

> <b_m_subgroup_collapsed>
0

$$$$
SCE-796
                    3D
 Schrodinger Suite 2022-2.
 54 57  0  0  1  0            999 V2000
  -27.0402  -23.5482  -23.2378 O   0  0  0  0  0  0
  -27.3155  -22.4029  -22.9525 C   0  0  0  0  0  0
  -27.9141  -21.1639  -23.6569 C   0  0  2  0  0  0
  -27.6054  -20.4128  -22.3536 C   0  0  2  0  0  0
  -27.2387  -21.6926  -21.7719 N   0  0  0  0  0  0
  -26.8870  -21.8572  -20.4195 C   0  0  0  0  0  0
  -26.2048  -23.2272  -20.0405 C   0  0  0  0  0  0
  -25.1256  -23.1552  -19.4156 O   0  5  0  0  0  0
  -26.7830  -24.2828  -20.3917 O   0  0  0  0  0  0
  -27.2060  -20.9228  -19.4832 C   0  0  0  0  0  0
  -27.9927  -19.6398  -19.7918 C   0  0  0  0  0  0
  -28.9072  -19.6674  -21.3462 S   0  0  0  0  0  0
  -26.9250  -21.1018  -17.9924 C   0  0  0  0  0  0
  -25.5401  -20.7566  -17.5861 N   0  3  0  0  0  0
  -24.8259  -21.6492  -16.8498 C   0  0  0  0  0  0
  -23.5710  -21.3039  -16.3073 C   0  0  0  0  0  0
  -23.0692  -19.9986  -16.4963 C   0  0  0  0  0  0
  -23.8059  -19.1048  -17.3051 C   0  0  0  0  0  0
  -25.0424  -19.5196  -17.8431 C   0  0  0  0  0  0
  -21.7852  -19.5831  -15.8430 C   0  0  0  0  0  0
  -21.7520  -18.3498  -15.3326 N   0  0  0  0  0  0
  -20.8473  -20.3686  -15.7319 O   0  0  0  0  0  0
  -29.3504  -21.2831  -23.8892 N   0  0  0  0  0  0
  -29.9078  -21.6822  -25.0375 C   0  0  0  0  0  0
  -31.4562  -21.7682  -25.0505 C   0  0  2  0  0  0
  -31.9760  -22.5977  -23.8672 C   0  0  0  0  0  0
  -31.9741  -24.0147  -23.8731 C   0  0  0  0  0  0
  -32.4409  -24.7357  -22.7595 C   0  0  0  0  0  0
  -32.8877  -24.0533  -21.6135 C   0  0  0  0  0  0
  -32.8796  -22.6464  -21.5880 C   0  0  0  0  0  0
  -32.4314  -21.9236  -22.7105 C   0  0  0  0  0  0
  -31.9791  -22.3019  -26.4130 C   0  0  0  0  0  0
  -32.7688  -21.5622  -27.0457 O   0  5  0  0  0  0
  -31.5573  -23.3967  -26.8536 O   0  0  0  0  0  0
  -29.2073  -21.9436  -26.0164 O   0  0  0  0  0  0
  -27.3435  -20.7735  -24.5006 H   0  0  0  0  0  0
  -26.7411  -19.7503  -22.4361 H   0  0  0  0  0  0
  -28.7440  -19.4639  -19.0220 H   0  0  0  0  0  0
  -27.3286  -18.7770  -19.8050 H   0  0  0  0  0  0
  -27.5805  -20.4622  -17.4075 H   0  0  0  0  0  0
  -27.1462  -22.1235  -17.6799 H   0  0  0  0  0  0
  -25.2847  -22.6129  -16.6799 H   0  0  0  0  0  0
  -23.0316  -22.0135  -15.6972 H   0  0  0  0  0  0
  -23.4493  -18.1005  -17.4909 H   0  0  0  0  0  0
  -25.6621  -18.8548  -18.4209 H   0  0  0  0  0  0
  -22.5652  -17.7408  -15.3413 H   0  0  0  0  0  0
  -20.9116  -18.0377  -14.8715 H   0  0  0  0  0  0
  -29.9532  -21.0694  -23.1050 H   0  0  0  0  0  0
  -31.8287  -20.7486  -24.9430 H   0  0  0  0  0  0
  -31.6197  -24.5665  -24.7291 H   0  0  0  0  0  0
  -32.4466  -25.8136  -22.7811 H   0  0  0  0  0  0
  -33.2344  -24.6073  -20.7523 H   0  0  0  0  0  0
  -33.2098  -22.1199  -20.7033 H   0  0  0  0  0  0
  -32.4277  -20.8436  -22.6685 H   0  0  0  0  0  0
  1  2  2  0  0  0
  2  5  1  0  0  0
  2  3  1  0  0  0
  3  4  1  0  0  0
  3 23  1  0  0  0
  3 36  1  0  0  0
  4 12  1  0  0  0
  4  5  1  0  0  0
  4 37  1  0  0  0
  5  6  1  0  0  0
  6  7  1  0  0  0
  6 10  2  0  0  0
  7  8  1  0  0  0
  7  9  2  0  0  0
 10 11  1  0  0  0
 10 13  1  0  0  0
 11 12  1  0  0  0
 11 38  1  0  0  0
 11 39  1  0  0  0
 13 14  1  0  0  0
 13 40  1  0  0  0
 13 41  1  0  0  0
 14 19  1  0  0  0
 14 15  2  0  0  0
 15 16  1  0  0  0
 15 42  1  0  0  0
 16 17  2  0  0  0
 16 43  1  0  0  0
 17 18  1  0  0  0
 17 20  1  0  0  0
 18 19  2  0  0  0
 18 44  1  0  0  0
 19 45  1  0  0  0
 20 21  1  0  0  0
 20 22  2  0  0  0
 21 46  1  0  0  0
 21 47  1  0  0  0
 23 24  1  0  0  0
 23 48  1  0  0  0
 24 25  1  0  0  0
 24 35  2  0  0  0
 25 26  1  0  0  0
 25 32  1  0  0  0
 25 49  1  0  0  0
 26 31  1  0  0  0
 26 27  2  0  0  0
 27 28  1  0  0  0
 27 50  1  0  0  0
 28 29  2  0  0  0
 28 51  1  0  0  0
 29 30  1  0  0  0
 29 52  1  0  0  0
 30 31  2  0  0  0
 30 53  1  0  0  0
 31 54  1  0  0  0
 32 33  1  0  0  0
 32 34  2  0  0  0
M  CHG  3   8  -1  14   1  33  -1
M  END
> <s_m_entry_id>
27302

> <s_m_entry_name>
data_maestro.28

> <s_m_Source_Path>
C:\Users\olshana1\Git\GramNeg-Accumulation\Gram Negative Permeation - OmpF

> <s_m_Source_File>
data_maestro.csv

> <i_m_Source_File_Index>
28

> <s_m_job_name>
glide-dock_Nicaido_neutral

> <s_i_glide_gridfile>
3POX-grid

> <i_i_glide_lignum>
35

> <i_i_glide_rotatable_bonds>
9

> <r_i_docking_score>
-5.62742336823

> <r_i_glide_ligand_efficiency>
-0.160783524806571

> <r_i_glide_ligand_efficiency_sa>
-0.525933570604855

> <r_i_glide_ligand_efficiency_ln>
-1.23534432325904

> <r_i_glide_gscore>
-5.62742336823

> <r_i_glide_lipo>
0

> <r_i_glide_hbond>
-0.889767337728241

> <r_i_glide_metal>
0

> <r_i_glide_rewards>
-0.255767818760091

> <r_i_glide_evdw>
-26.8609180450439

> <r_i_glide_ecoul>
-19.8518390655518

> <r_i_glide_erotb>
0.415177540389138

> <r_i_glide_esite>
-0.576243990045849

> <r_i_glide_emodel>
-78.5788190162521

> <r_i_glide_energy>
-46.7127571105957

> <r_i_glide_einternal>
12.4285230636597

> <i_i_glide_confnum>
25

> <i_i_glide_posenum>
147

> <r_i_glide_eff_state_penalty>
0

> <r_glide_res:A132_vdw>
1.85975078804614

> <r_glide_res:A132_coul>
-48.7157722155625

> <r_glide_res:A132_hbond>
-0.336406281050271

> <r_glide_res:A132_dist>
1.74113519481132

> <r_glide_res:A132_Eint>
-47.1924277085667

> <r_glide_res:A117_vdw>
-2.20227147624972

> <r_glide_res:A117_coul>
16.7390370296599

> <r_glide_res:A117_hbond>
0

> <r_glide_res:A117_dist>
3.04820286434751

> <r_glide_res:A117_Eint>
14.5367655534101

> <r_glide_res:A113_vdw>
-3.02848440348775

> <r_glide_res:A113_coul>
14.995497058128

> <r_glide_res:A113_hbond>
0

> <r_glide_res:A113_dist>
2.21304753734112

> <r_glide_res:A113_Eint>
11.9670126546403

> <r_glide_res:A82_vdw>
-0.0328015829368093

> <r_glide_res:A82_coul>
-47.0216456177488

> <r_glide_res:A82_hbond>
-0.157815713416639

> <r_glide_res:A82_dist>
1.76757684529763

> <r_glide_res:A82_Eint>
-47.2122629141022

> <r_glide_res:A42_vdw>
-1.04715177373091

> <r_glide_res:A42_coul>
-50.1143983974006

> <r_glide_res:A42_hbond>
-0.142771465304515

> <r_glide_res:A42_dist>
1.88400665997207

> <r_glide_res:A42_Eint>
-51.304321636436

> <r_glide_res:A16_vdw>
-0.0243136582067107

> <r_glide_res:A16_coul>
-60.0910395645948

> <r_glide_res:A16_hbond>
-0.113290010129221

> <r_glide_res:A16_dist>
2.10087982327561

> <r_glide_res:A16_Eint>
-60.2286432329308

> <s_m_source_file>
ligprep_Nicaido_neutral.maegz

> <i_m_source_file_index>
28

> <i_lp_mmshare_version>
58128

> <i_f3d_flags>
0

> <s_lp_Force_Field>
S-OPLS

> <r_lp_Energy>
64.89814

> <b_lp_Chiralities_Consistent>
1

> <s_lp_Variant>
SCE-796-1

> <s_epik_input>
W2NIXTFbY0hdW2NIXVtjSF1bY0hdYzFbQ0BIXShDKD1PKVtPSF0pQyg9TylbTkhdW0NAQEhdMkMoPU8pTihbQ0BASF0yMylDKEMoPU8pW09IXSk9QyhbQ0gyXVMzKVtDSDJdW24rXTRbY0hdW2NIXWMoW2NIXVtjSF00KUMoPU8pW05IMl0=

> <s_epik_cmdline>
J2VwaWtfcHl0aG9uJywgJy1waHQnLCAnMC4wJywgJy1waCcsICc3LjQnLCAnLW50JywgJy1tYScsICc1MDAnLCAnLWltYWUnLCAnPGluZmlsZS5tYWU+JywgJy1vbWFlJywgJzxvdXRmaWxlLm1hZT4n

> <r_lp_tautomer_probability>
1

> <r_epik_Ionization_Penalty>
  0.0010

> <r_epik_Ionization_Penalty_Charging>
  0.0001

> <r_epik_Ionization_Penalty_Neutral>
  0.0010

> <r_epik_State_Penalty>
  0.0000

> <r_epik_Charging_Adjusted_Penalty>
5.79311335039239e-05

> <i_epik_Tot_Q>
-1

> <i_epik_Tot_abs_Q>
3

> <s_epik_Chemistry_Notes>
This compound contains an acetal/aminal-like group ( X-CH(R)-Y where X, Y are N, S, or O) that may be acid/base labile, releasing an aldehyde.

> <s_m_subgroup_title>
glide-dock_Nicaido_neutral_pv1

> <s_m_subgroupid>
glide-dock_Nicaido_neutral_pv1

> <b_m_subgroup_collapsed>
0

$$$$
BL-S217
                    3D
 Schrodinger Suite 2022-2.
 48 50  0  0  1  0            999 V2000
  -28.6937  -23.9491  -22.7838 O   0  0  0  0  0  0
  -29.3768  -23.0697  -22.2973 C   0  0  0  0  0  0
  -29.8701  -22.6844  -20.8766 C   0  0  2  0  0  0
  -30.5607  -21.4947  -21.5616 C   0  0  1  0  0  0
  -30.1329  -22.0360  -22.8397 N   0  0  0  0  0  0
  -30.5243  -21.4661  -24.0759 C   0  0  0  0  0  0
  -29.7276  -21.9496  -25.3456 C   0  0  0  0  0  0
  -28.5309  -22.2973  -25.2131 O   0  5  0  0  0  0
  -30.3689  -22.0306  -26.4133 O   0  0  0  0  0  0
  -31.5426  -20.5551  -24.1532 C   0  0  0  0  0  0
  -32.3743  -20.1123  -22.9523 C   0  0  0  0  0  0
  -32.3624  -21.3158  -21.6133 S   0  0  0  0  0  0
  -32.0087  -19.8500  -25.4248 C   0  0  0  0  0  0
  -33.2600  -20.3842  -25.8377 O   0  0  0  0  0  0
  -33.7377  -20.1599  -27.0683 C   0  0  0  0  0  0
  -35.1155  -20.7749  -27.2744 C   0  0  0  0  0  0
  -33.1689  -19.5498  -27.9731 O   0  0  0  0  0  0
  -28.8476  -22.2065  -19.9466 N   0  0  0  0  0  0
  -27.7487  -22.8511  -19.5354 C   0  0  0  0  0  0
  -26.9086  -22.1288  -18.4783 C   0  0  0  0  0  0
  -25.1446  -22.0073  -18.9055 S   0  0  0  0  0  0
  -24.9097  -20.6505  -20.0198 C   0  0  0  0  0  0
  -25.9208  -20.2246  -20.9084 C   0  0  0  0  0  0
  -25.6474  -19.1789  -21.8122 C   0  0  0  0  0  0
  -24.4342  -18.5777  -21.8262 N   0  3  0  0  0  0
  -24.1606  -17.5294  -22.8106 C   0  0  0  0  0  0
  -23.4485  -18.9507  -20.9736 C   0  0  0  0  0  0
  -23.6599  -19.9983  -20.0514 C   0  0  0  0  0  0
  -27.4022  -23.9497  -19.9763 O   0  0  0  0  0  0
  -30.5843  -23.3770  -20.4283 H   0  0  0  0  0  0
  -30.0807  -20.5322  -21.3650 H   0  0  0  0  0  0
  -31.9973  -19.1562  -22.5880 H   0  0  0  0  0  0
  -33.4140  -19.9583  -23.2412 H   0  0  0  0  0  0
  -32.1307  -18.7878  -25.2069 H   0  0  0  0  0  0
  -31.2708  -19.9032  -26.2233 H   0  0  0  0  0  0
  -35.4166  -20.6974  -28.3192 H   0  0  0  0  0  0
  -35.1082  -21.8296  -26.9966 H   0  0  0  0  0  0
  -35.8543  -20.2583  -26.6604 H   0  0  0  0  0  0
  -29.0947  -21.3492  -19.4623 H   0  0  0  0  0  0
  -26.9965  -22.6839  -17.5437 H   0  0  0  0  0  0
  -27.2984  -21.1284  -18.2806 H   0  0  0  0  0  0
  -26.8938  -20.6849  -20.9326 H   0  0  0  0  0  0
  -26.3693  -18.8166  -22.5299 H   0  0  0  0  0  0
  -25.0988  -17.1485  -23.2125 H   0  0  0  0  0  0
  -23.6100  -16.7222  -22.3306 H   0  0  0  0  0  0
  -23.5687  -17.9684  -23.6128 H   0  0  0  0  0  0
  -22.5118  -18.4184  -21.0597 H   0  0  0  0  0  0
  -22.8693  -20.3033  -19.3809 H   0  0  0  0  0  0
  1  2  2  0  0  0
  2  5  1  0  0  0
  2  3  1  0  0  0
  3  4  1  0  0  0
  3 18  1  0  0  0
  3 30  1  0  0  0
  4 12  1  0  0  0
  4  5  1  0  0  0
  4 31  1  0  0  0
  5  6  1  0  0  0
  6  7  1  0  0  0
  6 10  2  0  0  0
  7  8  1  0  0  0
  7  9  2  0  0  0
 10 11  1  0  0  0
 10 13  1  0  0  0
 11 12  1  0  0  0
 11 32  1  0  0  0
 11 33  1  0  0  0
 13 14  1  0  0  0
 13 34  1  0  0  0
 13 35  1  0  0  0
 14 15  1  0  0  0
 15 16  1  0  0  0
 15 17  2  0  0  0
 16 36  1  0  0  0
 16 37  1  0  0  0
 16 38  1  0  0  0
 18 19  1  0  0  0
 18 39  1  0  0  0
 19 20  1  0  0  0
 19 29  2  0  0  0
 20 21  1  0  0  0
 20 40  1  0  0  0
 20 41  1  0  0  0
 21 22  1  0  0  0
 22 28  1  0  0  0
 22 23  2  0  0  0
 23 24  1  0  0  0
 23 42  1  0  0  0
 24 25  2  0  0  0
 24 43  1  0  0  0
 25 26  1  0  0  0
 25 27  1  0  0  0
 26 44  1  0  0  0
 26 45  1  0  0  0
 26 46  1  0  0  0
 27 28  2  0  0  0
 27 47  1  0  0  0
 28 48  1  0  0  0
M  CHG  2   8  -1  25   1
M  END
> <s_m_entry_id>
27303

> <s_m_entry_name>
data_maestro.17

> <s_m_Source_Path>
C:\Users\olshana1\Git\GramNeg-Accumulation\Gram Negative Permeation - OmpF

> <s_m_Source_File>
data_maestro.csv

> <i_m_Source_File_Index>
17

> <s_m_job_name>
glide-dock_Nicaido_neutral

> <s_i_glide_gridfile>
3POX-grid

> <i_i_glide_lignum>
22

> <i_i_glide_rotatable_bonds>
9

> <r_i_docking_score>
-5.62289863028593

> <r_i_glide_ligand_efficiency>
-0.193893056216756

> <r_i_glide_ligand_efficiency_sa>
-0.595700898329759

> <r_i_glide_ligand_efficiency_ln>
-1.28750120192873

> <r_i_glide_gscore>
-5.62289863028593

> <r_i_glide_lipo>
0

> <r_i_glide_hbond>
-1.14522224814739

> <r_i_glide_metal>
0

> <r_i_glide_rewards>
-0.425875900801287

> <r_i_glide_evdw>
-21.9763450622559

> <r_i_glide_ecoul>
-20.9542999267578

> <r_i_glide_erotb>
0.729326637690335

> <r_i_glide_esite>
-0.539164876901132

> <r_i_glide_emodel>
-77.5568644038001

> <r_i_glide_energy>
-42.9306449890137

> <r_i_glide_einternal>
2.52294087409973

> <i_i_glide_confnum>
139

> <i_i_glide_posenum>
301

> <r_i_glide_eff_state_penalty>
0

> <r_glide_res:A132_vdw>
-1.69285617990724

> <r_glide_res:A132_coul>
-15.5544720412193

> <r_glide_res:A132_hbond>
-0.168313854951675

> <r_glide_res:A132_dist>
2.00400306824007

> <r_glide_res:A132_Eint>
-17.4156420760782

> <r_glide_res:A117_vdw>
-1.56040484295819

> <r_glide_res:A117_coul>
-18.4180537803384

> <r_glide_res:A117_hbond>
0

> <r_glide_res:A117_dist>
2.22417595571023

> <r_glide_res:A117_Eint>
-19.9784586232966

> <r_glide_res:A113_vdw>
-3.98196894294875

> <r_glide_res:A113_coul>
-12.0815990443322

> <r_glide_res:A113_hbond>
-0.0172376545465254

> <r_glide_res:A113_dist>
2.45432459852405

> <r_glide_res:A113_Eint>
-16.0808056418274

> <r_glide_res:A82_vdw>
-1.19402171566056

> <r_glide_res:A82_coul>
-23.9401356112831

> <r_glide_res:A82_hbond>
-0.251072344504374

> <r_glide_res:A82_dist>
2.0394081985835

> <r_glide_res:A82_Eint>
-25.385229671448

> <r_glide_res:A42_vdw>
0.0445820047696754

> <r_glide_res:A42_coul>
-33.3388227816316

> <r_glide_res:A42_hbond>
-0.474721656400869

> <r_glide_res:A42_dist>
2.02280628140142

> <r_glide_res:A42_Eint>
-33.7689624332628

> <r_glide_res:A16_vdw>
-0.487757139731763

> <r_glide_res:A16_coul>
-33.6940915867522

> <r_glide_res:A16_hbond>
-0.233876737743943

> <r_glide_res:A16_dist>
1.91665818323794

> <r_glide_res:A16_Eint>
-34.4157254642279

> <s_m_source_file>
ligprep_Nicaido_neutral.maegz

> <i_m_source_file_index>
17

> <i_lp_mmshare_version>
58128

> <i_f3d_flags>
0

> <s_lp_Force_Field>
S-OPLS

> <r_lp_Energy>
45.233938

> <b_lp_Chiralities_Consistent>
1

> <s_lp_Variant>
BL-S217-1

> <s_epik_input>
W0NIM11DKD1PKU9bQ0gyXUMoW0NIMl1TMSk9QyhDKD1PKVtPSF0pTihbQ0BASF0xMilDKD1PKVtDQEhdMltOSF1DKD1PKVtDSDJdU2MzW2NIXVtjSF1bbitdKFtDSDNdKVtjSF1bY0hdMw==

> <s_epik_cmdline>
J2VwaWtfcHl0aG9uJywgJy1waHQnLCAnMC4wJywgJy1waCcsICc3LjQnLCAnLW50JywgJy1tYScsICc1MDAnLCAnLWltYWUnLCAnPGluZmlsZS5tYWU+JywgJy1vbWFlJywgJzxvdXRmaWxlLm1hZT4n

> <r_lp_tautomer_probability>
1

> <r_epik_Ionization_Penalty>
  0.0000

> <r_epik_Ionization_Penalty_Charging>
  0.0000

> <r_epik_Ionization_Penalty_Neutral>
  0.0000

> <r_epik_State_Penalty>
  0.0000

> <r_epik_Charging_Adjusted_Penalty>
6.14912740637116e-06

> <i_epik_Tot_Q>
0

> <i_epik_Tot_abs_Q>
2

> <s_epik_Chemistry_Notes>
This compound has an ester and may undergo hydrolysis at high or low pH. This compound contains an acetal/aminal-like group ( X-CH(R)-Y where X, Y are N, S, or O) that may be acid/base labile, releasing an aldehyde.

> <s_m_subgroup_title>
glide-dock_Nicaido_neutral_pv1

> <s_m_subgroupid>
glide-dock_Nicaido_neutral_pv1

> <b_m_subgroup_collapsed>
0

$$$$
Imipenem
                    3D
 Schrodinger Suite 2022-2.
 37 38  0  0  1  0            999 V2000
  -22.9745  -19.9306  -26.4134 C   0  0  0  0  0  0
  -23.5690  -21.3223  -26.1531 C   0  0  2  0  0  0
  -23.6270  -21.6567  -24.6567 C   0  0  1  0  0  0
  -24.6358  -20.9192  -23.7513 C   0  0  2  0  0  0
  -24.3740  -20.4753  -22.3032 C   0  0  0  0  0  0
  -25.3225  -21.3406  -21.5168 C   0  0  0  0  0  0
  -25.6008  -21.0068  -19.7975 S   0  0  0  0  0  0
  -27.3762  -20.6465  -19.6959 C   0  0  0  0  0  0
  -27.7237  -19.3274  -20.3953 C   0  0  0  0  0  0
  -29.1689  -19.1039  -20.4134 N   0  3  0  0  0  0
  -29.7658  -18.1605  -21.1590 C   0  0  0  0  0  0
  -31.0902  -17.9496  -21.1015 N   0  0  0  0  0  0
  -25.8177  -22.3273  -22.2748 C   0  0  0  0  0  0
  -25.3183  -22.1941  -23.5671 N   0  0  0  0  0  0
  -24.4399  -22.9378  -24.3336 C   0  0  0  0  0  0
  -24.3689  -24.1274  -24.5673 O   0  0  0  0  0  0
  -26.7793  -23.5008  -21.8979 C   0  0  0  0  0  0
  -27.5061  -23.9496  -22.8134 O   0  5  0  0  0  0
  -26.7039  -23.9496  -20.7346 O   0  0  0  0  0  0
  -22.7689  -22.2829  -26.8134 O   0  0  0  0  0  0
  -23.5873  -19.1496  -25.9605 H   0  0  0  0  0  0
  -22.9091  -19.7135  -27.4797 H   0  0  0  0  0  0
  -21.9705  -19.8427  -25.9967 H   0  0  0  0  0  0
  -24.5669  -21.3607  -26.5928 H   0  0  0  0  0  0
  -22.6383  -21.6590  -24.1964 H   0  0  0  0  0  0
  -25.2882  -20.2392  -24.3036 H   0  0  0  0  0  0
  -23.3479  -20.6711  -21.9907 H   0  0  0  0  0  0
  -24.5890  -19.4165  -22.1540 H   0  0  0  0  0  0
  -27.9426  -21.4744  -20.1216 H   0  0  0  0  0  0
  -27.6513  -20.5866  -18.6419 H   0  0  0  0  0  0
  -27.2377  -18.4874  -19.8980 H   0  0  0  0  0  0
  -27.3677  -19.3388  -21.4257 H   0  0  0  0  0  0
  -29.1689  -17.5496  -21.8225 H   0  0  0  0  0  0
  -31.6450  -18.5045  -20.4605 H   0  0  0  0  0  0
  -31.5058  -17.1761  -21.6134 H   0  0  0  0  0  0
  -22.6408  -22.0195  -27.7137 H   0  0  0  0  0  0
  -29.7455  -19.5496  -19.6807 H   0  0  0  0  0  0
  1  2  1  0  0  0
  1 21  1  0  0  0
  1 22  1  0  0  0
  1 23  1  0  0  0
  2  3  1  0  0  0
  2 20  1  0  0  0
  2 24  1  0  0  0
  3 15  1  0  0  0
  3  4  1  0  0  0
  3 25  1  0  0  0
  4 14  1  0  0  0
  4  5  1  0  0  0
  4 26  1  0  0  0
  5  6  1  0  0  0
  5 27  1  0  0  0
  5 28  1  0  0  0
  6  7  1  0  0  0
  6 13  2  0  0  0
  7  8  1  0  0  0
  8  9  1  0  0  0
  8 29  1  0  0  0
  8 30  1  0  0  0
  9 10  1  0  0  0
  9 31  1  0  0  0
  9 32  1  0  0  0
 10 11  2  3  0  0
 10 37  1  0  0  0
 11 12  1  0  0  0
 11 33  1  0  0  0
 12 34  1  0  0  0
 12 35  1  0  0  0
 13 14  1  0  0  0
 13 17  1  0  0  0
 14 15  1  0  0  0
 15 16  2  0  0  0
 17 18  1  0  0  0
 17 19  2  0  0  0
 20 36  1  0  0  0
M  CHG  2  10   1  18  -1
M  END
> <s_m_entry_id>
27304

> <s_m_entry_name>
data_maestro.12

> <s_m_Source_Path>
C:\Users\olshana1\Git\GramNeg-Accumulation\Gram Negative Permeation - OmpF

> <s_m_Source_File>
data_maestro.csv

> <i_m_Source_File_Index>
12

> <s_m_job_name>
glide-dock_Nicaido_neutral

> <s_i_glide_gridfile>
3POX-grid

> <i_i_glide_lignum>
16

> <i_i_glide_rotatable_bonds>
7

> <r_i_docking_score>
-5.62075183711098

> <r_i_glide_ligand_efficiency>
-0.281037591855549

> <r_i_glide_ligand_efficiency_sa>
-0.762853389496343

> <r_i_glide_ligand_efficiency_ln>
-1.40668880002604

> <r_i_glide_gscore>
-5.62075183711098

> <r_i_glide_lipo>
0

> <r_i_glide_hbond>
-0.669451314754154

> <r_i_glide_metal>
0

> <r_i_glide_rewards>
-1.36808809090909

> <r_i_glide_evdw>
-14.9589672088623

> <r_i_glide_ecoul>
-22.78759765625

> <r_i_glide_erotb>
1.02473259195513

> <r_i_glide_esite>
-0.441857014522243

> <r_i_glide_emodel>
-69.4860050656631

> <r_i_glide_energy>
-37.7465648651123

> <r_i_glide_einternal>
4.76816558837891

> <i_i_glide_confnum>
37

> <i_i_glide_posenum>
146

> <r_i_glide_eff_state_penalty>
0

> <r_glide_res:A132_vdw>
-0.782793736974533

> <r_glide_res:A132_coul>
-30.9165962975675

> <r_glide_res:A132_hbond>
-0.261855182363365

> <r_glide_res:A132_dist>
1.93375033832879

> <r_glide_res:A132_Eint>
-31.9612452169054

> <r_glide_res:A117_vdw>
-2.48564940823316

> <r_glide_res:A117_coul>
-10.2010178672873

> <r_glide_res:A117_hbond>
0

> <r_glide_res:A117_dist>
2.1935316045656

> <r_glide_res:A117_Eint>
-12.6866672755205

> <r_glide_res:A113_vdw>
2.67472828551112

> <r_glide_res:A113_coul>
-27.5184795794928

> <r_glide_res:A113_hbond>
-0.214898228607872

> <r_glide_res:A113_dist>
1.56815171714493

> <r_glide_res:A113_Eint>
-25.0586495225895

> <r_glide_res:A82_vdw>
2.68135240870881

> <r_glide_res:A82_coul>
-34.6552513819229

> <r_glide_res:A82_hbond>
-0.192697903782917

> <r_glide_res:A82_dist>
1.58539580756583

> <r_glide_res:A82_Eint>
-32.166596876997

> <r_glide_res:A42_vdw>
-1.58010097448929

> <r_glide_res:A42_coul>
-14.7074310509535

> <r_glide_res:A42_hbond>
0

> <r_glide_res:A42_dist>
2.53975746103654

> <r_glide_res:A42_Eint>
-16.2875320254428

> <r_glide_res:A16_vdw>
-0.123629447470525

> <r_glide_res:A16_coul>
-0.410195234650815

> <r_glide_res:A16_hbond>
0

> <r_glide_res:A16_dist>
5.90011435168187

> <r_glide_res:A16_Eint>
-0.53382468212134

> <s_m_source_file>
ligprep_Nicaido_neutral.maegz

> <i_m_source_file_index>
12

> <i_lp_mmshare_version>
58128

> <i_f3d_flags>
0

> <s_lp_Force_Field>
S-OPLS

> <r_lp_Energy>
18.714001

> <b_lp_Chiralities_Consistent>
1

> <s_lp_Variant>
Imipenem-1

> <s_epik_input>
W0NIM11bQ0BASF0oW09IXSlbQ0BASF0xQyg9TylOKFtDQEhdMTIpQyhDKD1PKVtPSF0pPUMoW0NIMl0yKVNbQ0gyXVtDSDJdL049W0NIXS9bTkgyXQ==

> <s_epik_cmdline>
J2VwaWtfcHl0aG9uJywgJy1waHQnLCAnMC4wJywgJy1waCcsICc3LjQnLCAnLW50JywgJy1tYScsICc1MDAnLCAnLWltYWUnLCAnPGluZmlsZS5tYWU+JywgJy1vbWFlJywgJzxvdXRmaWxlLm1hZT4n

> <r_lp_tautomer_probability>
1

> <r_epik_Ionization_Penalty>
  0.0001

> <r_epik_Ionization_Penalty_Charging>
  0.0001

> <r_epik_Ionization_Penalty_Neutral>
  0.0000

> <r_epik_State_Penalty>
  0.0000

> <r_epik_Charging_Adjusted_Penalty>
9.5675940864495e-05

> <i_epik_Tot_Q>
0

> <i_epik_Tot_abs_Q>
2

> <s_epik_Chemistry_Notes>
This compound has an imine and may undergo hydrolysis.

> <s_m_subgroup_title>
glide-dock_Nicaido_neutral_pv1

> <s_m_subgroupid>
glide-dock_Nicaido_neutral_pv1

> <b_m_subgroup_collapsed>
0

$$$$
Cyclacillin
                    3D
 Schrodinger Suite 2022-2.
 46 48  0  0  1  0            999 V2000
  -30.7639  -22.4526  -23.6392 C   0  0  0  0  0  0
  -29.9794  -21.4785  -22.7360 C   0  0  0  0  0  0
  -28.6267  -22.0322  -22.1426 C   0  0  2  0  0  0
  -27.6218  -21.5092  -23.0465 N   0  0  0  0  0  0
  -27.7069  -20.2078  -23.6770 C   0  0  2  0  0  0
  -29.5135  -20.0499  -23.8035 S   0  0  0  0  0  0
  -26.7941  -20.7407  -24.7941 C   0  0  2  0  0  0
  -26.7019  -22.0122  -23.9283 C   0  0  0  0  0  0
  -26.1496  -23.0888  -24.0132 O   0  0  0  0  0  0
  -25.5365  -20.0030  -24.8844 N   0  0  0  0  0  0
  -24.3826  -20.5103  -25.3657 C   0  0  0  0  0  0
  -23.0465  -19.8064  -24.9976 C   0  0  0  0  0  0
  -22.0549  -20.7955  -24.3185 C   0  0  0  0  0  0
  -21.3413  -21.7628  -25.2811 C   0  0  0  0  0  0
  -20.6637  -20.9881  -26.4141 C   0  0  0  0  0  0
  -21.6897  -20.1477  -27.1844 C   0  0  0  0  0  0
  -22.3883  -19.1496  -26.2434 C   0  0  0  0  0  0
  -23.3393  -18.7496  -24.0134 N   0  3  0  0  0  0
  -24.3705  -21.5494  -26.0260 O   0  0  0  0  0  0
  -28.4797  -23.5543  -21.8923 C   0  0  0  0  0  0
  -27.9812  -23.9491  -20.8134 O   0  5  0  0  0  0
  -28.7686  -24.3494  -22.8134 O   0  0  0  0  0  0
  -30.9043  -20.9912  -21.6134 C   0  0  0  0  0  0
  -31.1454  -23.3049  -23.0763 H   0  0  0  0  0  0
  -30.1440  -22.8294  -24.4525 H   0  0  0  0  0  0
  -31.6262  -21.9598  -24.0889 H   0  0  0  0  0  0
  -28.4364  -21.5391  -21.1878 H   0  0  0  0  0  0
  -27.2766  -19.4090  -23.0686 H   0  0  0  0  0  0
  -27.3146  -20.8578  -25.7451 H   0  0  0  0  0  0
  -25.5468  -19.0758  -24.4819 H   0  0  0  0  0  0
  -21.2842  -20.2274  -23.7946 H   0  0  0  0  0  0
  -22.5670  -21.3726  -23.5465 H   0  0  0  0  0  0
  -20.5953  -22.3401  -24.7344 H   0  0  0  0  0  0
  -22.0391  -22.4900  -25.6956 H   0  0  0  0  0  0
  -19.8846  -20.3496  -26.0000 H   0  0  0  0  0  0
  -20.1564  -21.6684  -27.0933 H   0  0  0  0  0  0
  -21.2022  -19.6136  -28.0027 H   0  0  0  0  0  0
  -22.4217  -20.8050  -27.6533 H   0  0  0  0  0  0
  -23.1322  -18.5840  -26.8086 H   0  0  0  0  0  0
  -21.6484  -18.4148  -25.9209 H   0  0  0  0  0  0
  -22.4869  -18.2848  -23.7310 H   0  0  0  0  0  0
  -23.9332  -18.0516  -24.4767 H   0  0  0  0  0  0
  -31.1667  -21.8011  -20.9316 H   0  0  0  0  0  0
  -30.4240  -20.2124  -21.0196 H   0  0  0  0  0  0
  -31.8312  -20.5719  -22.0048 H   0  0  0  0  0  0
  -23.8113  -19.1265  -23.2051 H   0  0  0  0  0  0
  1  2  1  0  0  0
  1 24  1  0  0  0
  1 25  1  0  0  0
  1 26  1  0  0  0
  2  6  1  0  0  0
  2  3  1  0  0  0
  2 23  1  0  0  0
  3  4  1  0  0  0
  3 20  1  0  0  0
  3 27  1  0  0  0
  4  8  1  0  0  0
  4  5  1  0  0  0
  5  6  1  0  0  0
  5  7  1  0  0  0
  5 28  1  0  0  0
  7  8  1  0  0  0
  7 10  1  0  0  0
  7 29  1  0  0  0
  8  9  2  0  0  0
 10 11  1  0  0  0
 10 30  1  0  0  0
 11 12  1  0  0  0
 11 19  2  0  0  0
 12 17  1  0  0  0
 12 13  1  0  0  0
 12 18  1  0  0  0
 13 14  1  0  0  0
 13 31  1  0  0  0
 13 32  1  0  0  0
 14 15  1  0  0  0
 14 33  1  0  0  0
 14 34  1  0  0  0
 15 16  1  0  0  0
 15 35  1  0  0  0
 15 36  1  0  0  0
 16 17  1  0  0  0
 16 37  1  0  0  0
 16 38  1  0  0  0
 17 39  1  0  0  0
 17 40  1  0  0  0
 18 41  1  0  0  0
 18 42  1  0  0  0
 18 46  1  0  0  0
 20 21  1  0  0  0
 20 22  2  0  0  0
 23 43  1  0  0  0
 23 44  1  0  0  0
 23 45  1  0  0  0
M  CHG  2  18   1  21  -1
M  END
> <s_m_entry_id>
27305

> <s_m_entry_name>
data_maestro.19

> <s_m_Source_Path>
C:\Users\olshana1\Git\GramNeg-Accumulation\Gram Negative Permeation - OmpF

> <s_m_Source_File>
data_maestro.csv

> <i_m_Source_File_Index>
19

> <s_m_job_name>
glide-dock_Nicaido_neutral

> <s_i_glide_gridfile>
3POX-grid

> <i_i_glide_lignum>
24

> <i_i_glide_rotatable_bonds>
4

> <r_i_docking_score>
-5.6200600047499

> <r_i_glide_ligand_efficiency>
-0.244350434989126

> <r_i_glide_ligand_efficiency_sa>
-0.694900132851658

> <r_i_glide_ligand_efficiency_ln>
-1.35898146903518

> <r_i_glide_gscore>
-5.8233600047499

> <r_i_glide_lipo>
-0.441397642690706

> <r_i_glide_hbond>
-0.769001600112466

> <r_i_glide_metal>
0

> <r_i_glide_rewards>
-1.05580956553385

> <r_i_glide_evdw>
-22.7206745147705

> <r_i_glide_ecoul>
-15.8225440979004

> <r_i_glide_erotb>
0.487675558125352

> <r_i_glide_esite>
-0.535411414114652

> <r_i_glide_emodel>
-68.6986840709749

> <r_i_glide_energy>
-38.5432186126709

> <r_i_glide_einternal>
6.01596450805664

> <i_i_glide_confnum>
3

> <i_i_glide_posenum>
244

> <r_i_glide_eff_state_penalty>
0.2033

> <r_glide_res:A132_vdw>
0.337375773734043

> <r_glide_res:A132_coul>
-33.8529487646083

> <r_glide_res:A132_hbond>
-0.2

> <r_glide_res:A132_dist>
1.79465343169878

> <r_glide_res:A132_Eint>
-33.7155729908743

> <r_glide_res:A117_vdw>
-1.96432032417622

> <r_glide_res:A117_coul>
-43.5332522328186

> <r_glide_res:A117_hbond>
-0.2

> <r_glide_res:A117_dist>
1.67406031643113

> <r_glide_res:A117_Eint>
-45.6975725569948

> <r_glide_res:A113_vdw>
-1.68403877753575

> <r_glide_res:A113_coul>
9.35571339875787

> <r_glide_res:A113_hbond>
0

> <r_glide_res:A113_dist>
2.43066304911539

> <r_glide_res:A113_Eint>
7.67167462122212

> <r_glide_res:A82_vdw>
4.20566769409357

> <r_glide_res:A82_coul>
-39.0508446590014

> <r_glide_res:A82_hbond>
-0.325351399783629

> <r_glide_res:A82_dist>
1.66848253316506

> <r_glide_res:A82_Eint>
-35.1705283646915

> <r_glide_res:A42_vdw>
-1.5314126394248

> <r_glide_res:A42_coul>
-12.1586455598704

> <r_glide_res:A42_hbond>
-0.043650200328837

> <r_glide_res:A42_dist>
2.23798409467834

> <r_glide_res:A42_Eint>
-13.733708399624

> <r_glide_res:A16_vdw>
-0.429768522343118

> <r_glide_res:A16_coul>
-2.71181655282882

> <r_glide_res:A16_hbond>
0

> <r_glide_res:A16_dist>
3.8207875534459

> <r_glide_res:A16_Eint>
-3.14158507517194

> <s_m_source_file>
ligprep_Nicaido_neutral.maegz

> <i_m_source_file_index>
19

> <i_lp_mmshare_version>
58128

> <i_f3d_flags>
0

> <s_lp_Force_Field>
S-OPLS

> <r_lp_Energy>
30.580191

> <b_lp_Chiralities_Consistent>
1

> <s_lp_Variant>
Cyclacillin-1

> <s_epik_input>
W09IXUMoPU8pW0NAQEhdMUMoW0NIM10pKFtDSDNdKVNbQ0BASF0oTjEyKVtDQEhdKEMyPU8pW05IXUMoPU8pQzMoW05IMl0pW0NIMl1bQ0gyXVtDSDJdW0NIMl1bQ0gyXTM=

> <s_epik_cmdline>
J2VwaWtfcHl0aG9uJywgJy1waHQnLCAnMC4wJywgJy1waCcsICc3LjQnLCAnLW50JywgJy1tYScsICc1MDAnLCAnLWltYWUnLCAnPGluZmlsZS5tYWU+JywgJy1vbWFlJywgJzxvdXRmaWxlLm1hZT4n

> <r_epik_Ionization_Penalty>
  0.2033

> <r_epik_Ionization_Penalty_Charging>
  0.2033

> <r_epik_Ionization_Penalty_Neutral>
  0.0000

> <r_epik_State_Penalty>
  0.2033

> <r_epik_Charging_Adjusted_Penalty>
0.406545099244061

> <i_epik_Tot_Q>
0

> <i_epik_Tot_abs_Q>
2

> <s_epik_Chemistry_Notes>
This compound contains an acetal/aminal-like group ( X-CH(R)-Y where X, Y are N, S, or O) that may be acid/base labile, releasing an aldehyde.

> <s_m_subgroup_title>
glide-dock_Nicaido_neutral_pv1

> <s_m_subgroupid>
glide-dock_Nicaido_neutral_pv1

> <b_m_subgroup_collapsed>
0

$$$$
Cefoperazone
                    3D
 Schrodinger Suite 2022-2.
 70 74  0  0  1  0            999 V2000
  -36.9529  -23.1497  -18.2087 C   0  0  0  0  0  0
  -37.5592  -24.0517  -19.2898 C   0  0  0  0  0  0
  -37.3051  -23.5223  -20.6336 N   0  0  0  0  0  0
  -36.2532  -24.1919  -21.3887 C   0  0  0  0  0  0
  -35.5814  -23.2301  -22.3759 C   0  0  0  0  0  0
  -36.5612  -22.4833  -23.2108 N   0  0  0  0  0  0
  -37.7337  -22.0681  -22.6275 C   0  0  0  0  0  0
  -38.0425  -22.5165  -21.1572 C   0  0  0  0  0  0
  -38.9553  -21.9603  -20.5434 O   0  0  0  0  0  0
  -38.5840  -21.3515  -23.1667 O   0  0  0  0  0  0
  -36.2898  -22.2298  -24.5323 C   0  0  0  0  0  0
  -34.9988  -22.3770  -24.8806 N   0  0  0  0  0  0
  -34.4273  -22.1116  -26.2060 C   0  0  2  0  0  0
  -33.7737  -23.3532  -26.7531 C   0  0  0  0  0  0
  -33.6671  -23.5348  -28.1546 C   0  0  0  0  0  0
  -33.0310  -24.6606  -28.7132 C   0  0  0  0  0  0
  -32.4975  -25.6539  -27.8752 C   0  0  0  0  0  0
  -32.6019  -25.5116  -26.4808 C   0  0  0  0  0  0
  -33.2214  -24.3718  -25.9313 C   0  0  0  0  0  0
  -31.8885  -26.7495  -28.4134 O   0  0  0  0  0  0
  -33.2779  -21.0885  -26.1669 C   0  0  0  0  0  0
  -32.7004  -20.8231  -24.9864 N   0  0  0  0  0  0
  -31.3892  -20.1939  -24.8632 C   0  0  1  0  0  0
  -30.8585  -20.2402  -23.4222 C   0  0  1  0  0  0
  -29.6967  -20.9404  -23.9378 N   0  0  0  0  0  0
  -30.2498  -21.1922  -25.1830 C   0  0  0  0  0  0
  -29.9693  -21.9497  -26.0902 O   0  0  0  0  0  0
  -28.6511  -21.3631  -23.0921 C   0  0  0  0  0  0
  -27.7553  -22.5194  -23.6567 C   0  0  0  0  0  0
  -27.3021  -22.3495  -24.8091 O   0  5  0  0  0  0
  -27.6213  -23.5496  -22.9535 O   0  0  0  0  0  0
  -28.3996  -20.7443  -21.9048 C   0  0  0  0  0  0
  -29.2666  -19.6140  -21.3464 C   0  0  0  0  0  0
  -30.2759  -18.7528  -22.5766 S   0  0  0  0  0  0
  -27.2634  -21.1287  -20.9622 C   0  0  0  0  0  0
  -27.8603  -21.9853  -19.4765 S   0  0  0  0  0  0
  -26.4025  -22.8936  -19.1097 C   0  0  0  0  0  0
  -25.9797  -23.9497  -19.7930 N   0  0  0  0  0  0
  -24.8352  -24.3453  -19.1256 N   0  0  0  0  0  0
  -24.5826  -23.5595  -18.1201 N   0  0  0  0  0  0
  -25.5667  -22.6246  -18.0984 N   0  0  0  0  0  0
  -25.5610  -21.5759  -17.1025 C   0  0  0  0  0  0
  -32.8802  -20.5792  -27.2133 O   0  0  0  0  0  0
  -37.1155  -21.8601  -25.3696 O   0  0  0  0  0  0
  -37.1752  -23.5378  -17.2140 H   0  0  0  0  0  0
  -37.3605  -22.1407  -18.2676 H   0  0  0  0  0  0
  -35.8689  -23.0806  -18.3079 H   0  0  0  0  0  0
  -37.1547  -25.0597  -19.1933 H   0  0  0  0  0  0
  -38.6339  -24.1500  -19.1264 H   0  0  0  0  0  0
  -35.4954  -24.5981  -20.7161 H   0  0  0  0  0  0
  -36.6901  -25.0378  -21.9222 H   0  0  0  0  0  0
  -34.9757  -22.5046  -21.8277 H   0  0  0  0  0  0
  -34.8863  -23.8447  -22.9499 H   0  0  0  0  0  0
  -34.3659  -22.7006  -24.1676 H   0  0  0  0  0  0
  -35.1835  -21.7443  -26.9018 H   0  0  0  0  0  0
  -34.0769  -22.7880  -28.8202 H   0  0  0  0  0  0
  -32.9660  -24.7645  -29.7869 H   0  0  0  0  0  0
  -32.2027  -26.2730  -25.8271 H   0  0  0  0  0  0
  -33.2628  -24.2889  -24.8557 H   0  0  0  0  0  0
  -31.9692  -27.5227  -27.8611 H   0  0  0  0  0  0
  -33.1074  -21.2091  -24.1491 H   0  0  0  0  0  0
  -31.3026  -19.2093  -25.3259 H   0  0  0  0  0  0
  -31.4364  -20.8794  -22.7507 H   0  0  0  0  0  0
  -29.9455  -20.0633  -20.6277 H   0  0  0  0  0  0
  -28.6612  -18.8761  -20.8197 H   0  0  0  0  0  0
  -26.5150  -21.7413  -21.4599 H   0  0  0  0  0  0
  -26.7336  -20.2263  -20.6543 H   0  0  0  0  0  0
  -26.4345  -20.9340  -17.2145 H   0  0  0  0  0  0
  -25.5652  -22.0184  -16.1057 H   0  0  0  0  0  0
  -24.6657  -20.9651  -17.2161 H   0  0  0  0  0  0
  1  2  1  0  0  0
  1 45  1  0  0  0
  1 46  1  0  0  0
  1 47  1  0  0  0
  2  3  1  0  0  0
  2 48  1  0  0  0
  2 49  1  0  0  0
  3  8  1  0  0  0
  3  4  1  0  0  0
  4  5  1  0  0  0
  4 50  1  0  0  0
  4 51  1  0  0  0
  5  6  1  0  0  0
  5 52  1  0  0  0
  5 53  1  0  0  0
  6  7  1  0  0  0
  6 11  1  0  0  0
  7  8  1  0  0  0
  7 10  2  0  0  0
  8  9  2  0  0  0
 11 12  1  0  0  0
 11 44  2  0  0  0
 12 13  1  0  0  0
 12 54  1  0  0  0
 13 14  1  0  0  0
 13 21  1  0  0  0
 13 55  1  0  0  0
 14 19  1  0  0  0
 14 15  2  0  0  0
 15 16  1  0  0  0
 15 56  1  0  0  0
 16 17  2  0  0  0
 16 57  1  0  0  0
 17 18  1  0  0  0
 17 20  1  0  0  0
 18 19  2  0  0  0
 18 58  1  0  0  0
 19 59  1  0  0  0
 20 60  1  0  0  0
 21 22  1  0  0  0
 21 43  2  0  0  0
 22 23  1  0  0  0
 22 61  1  0  0  0
 23 26  1  0  0  0
 23 24  1  0  0  0
 23 62  1  0  0  0
 24 34  1  0  0  0
 24 25  1  0  0  0
 24 63  1  0  0  0
 25 26  1  0  0  0
 25 28  1  0  0  0
 26 27  2  0  0  0
 28 29  1  0  0  0
 28 32  2  0  0  0
 29 30  1  0  0  0
 29 31  2  0  0  0
 32 33  1  0  0  0
 32 35  1  0  0  0
 33 34  1  0  0  0
 33 64  1  0  0  0
 33 65  1  0  0  0
 35 36  1  0  0  0
 35 66  1  0  0  0
 35 67  1  0  0  0
 36 37  1  0  0  0
 37 41  1  0  0  0
 37 38  2  0  0  0
 38 39  1  0  0  0
 39 40  2  0  0  0
 40 41  1  0  0  0
 41 42  1  0  0  0
 42 68  1  0  0  0
 42 69  1  0  0  0
 42 70  1  0  0  0
M  CHG  1  30  -1
M  END
> <s_m_entry_id>
27306

> <s_m_entry_name>
data_maestro.8

> <s_m_Source_Path>
C:\Users\olshana1\Git\GramNeg-Accumulation\Gram Negative Permeation - OmpF

> <s_m_Source_File>
data_maestro.csv

> <i_m_Source_File_Index>
8

> <s_m_job_name>
glide-dock_Nicaido_neutral

> <s_i_glide_gridfile>
3POX-grid

> <i_i_glide_lignum>
11

> <i_i_glide_rotatable_bonds>
13

> <r_i_docking_score>
-5.59928832952105

> <r_i_glide_ligand_efficiency>
-0.12725655294366

> <r_i_glide_ligand_efficiency_sa>
-0.449259959277289

> <r_i_glide_ligand_efficiency_ln>
-1.17037340865923

> <r_i_glide_gscore>
-5.59928832952105

> <r_i_glide_lipo>
-0.00270851423434907

> <r_i_glide_hbond>
-0.90676151549619

> <r_i_glide_metal>
0

> <r_i_glide_rewards>
0.0243447046517676

> <r_i_glide_evdw>
-33.2757835388184

> <r_i_glide_ecoul>
-18.4994506835938

> <r_i_glide_erotb>
0.362700252817045

> <r_i_glide_esite>
-0.638156477779343

> <r_i_glide_emodel>
-81.5930949837707

> <r_i_glide_energy>
-51.7752342224121

> <r_i_glide_einternal>
9.36894702911377

> <i_i_glide_confnum>
527

> <i_i_glide_posenum>
117

> <r_i_glide_eff_state_penalty>
0

> <r_glide_res:A132_vdw>
-1.5515686541579

> <r_glide_res:A132_coul>
-33.751193130632

> <r_glide_res:A132_hbond>
0

> <r_glide_res:A132_dist>
2.09599528592846

> <r_glide_res:A132_Eint>
-35.3027617847899

> <r_glide_res:A117_vdw>
-2.43643107842693

> <r_glide_res:A117_coul>
25.3248850972275

> <r_glide_res:A117_hbond>
0

> <r_glide_res:A117_dist>
3.08285048238741

> <r_glide_res:A117_Eint>
22.8884540188006

> <r_glide_res:A113_vdw>
-3.1985963624512

> <r_glide_res:A113_coul>
15.2034861919953

> <r_glide_res:A113_hbond>
0

> <r_glide_res:A113_dist>
2.19183458050798

> <r_glide_res:A113_Eint>
12.0048898295441

> <r_glide_res:A82_vdw>
-1.70205321600715

> <r_glide_res:A82_coul>
-41.8400322999691

> <r_glide_res:A82_hbond>
-0.2

> <r_glide_res:A82_dist>
1.89608585555128

> <r_glide_res:A82_Eint>
-43.7420855159762

> <r_glide_res:A42_vdw>
2.24481926760545

> <r_glide_res:A42_coul>
-55.9930098004735

> <r_glide_res:A42_hbond>
-0.331059606442804

> <r_glide_res:A42_dist>
1.56345554185722

> <r_glide_res:A42_Eint>
-54.0792501393109

> <r_glide_res:A16_vdw>
-2.14481565506468

> <r_glide_res:A16_coul>
-40.8297596532997

> <r_glide_res:A16_hbond>
-0.215701909053386

> <r_glide_res:A16_dist>
2.02926579216483

> <r_glide_res:A16_Eint>
-43.1902772174177

> <s_m_source_file>
ligprep_Nicaido_neutral.maegz

> <i_m_source_file_index>
8

> <i_lp_mmshare_version>
58128

> <i_f3d_flags>
0

> <s_lp_Force_Field>
S-OPLS

> <r_lp_Energy>
85.319288

> <b_lp_Chiralities_Consistent>
1

> <s_lp_Variant>
Cefoperazone-1

> <s_epik_input>
W0NIM11bQ0gyXU4xW0NIMl1bQ0gyXU4oQyg9TylDMT1PKUMoPU8pW05IXVtDQEhdKGMyW2NIXVtjSF1jKFtPSF0pW2NIXVtjSF0yKUMoPU8pW05IXVtDQEBIXTNDKD1PKU4oW0NASF0zNClDKEMoPU8pW09IXSk9QyhbQ0gyXVM0KVtDSDJdU2M1bm5ubjVbQ0gzXQ==

> <s_epik_cmdline>
J2VwaWtfcHl0aG9uJywgJy1waHQnLCAnMC4wJywgJy1waCcsICc3LjQnLCAnLW50JywgJy1tYScsICc1MDAnLCAnLWltYWUnLCAnPGluZmlsZS5tYWU+JywgJy1vbWFlJywgJzxvdXRmaWxlLm1hZT4n

> <r_lp_tautomer_probability>
1

> <r_epik_Ionization_Penalty>
  0.0158

> <r_epik_Ionization_Penalty_Charging>
  0.0000

> <r_epik_Ionization_Penalty_Neutral>
  0.0158

> <r_epik_State_Penalty>
  0.0000

> <r_epik_Charging_Adjusted_Penalty>
8.23416745038905e-06

> <i_epik_Tot_Q>
-1

> <i_epik_Tot_abs_Q>
1

> <s_epik_Chemistry_Notes>
This compound contains an acetal/aminal-like group ( X-CH(R)-Y where X, Y are N, S, or O) that may be acid/base labile, releasing an aldehyde.

> <s_m_subgroup_title>
glide-dock_Nicaido_neutral_pv1

> <s_m_subgroupid>
glide-dock_Nicaido_neutral_pv1

> <b_m_subgroup_collapsed>
0

$$$$
Moxalactam
                    3D
 Schrodinger Suite 2022-2.
 54 57  0  0  1  0            999 V2000
  -25.5675  -21.0936  -17.4973 C   0  0  0  0  0  0
  -25.8647  -22.2438  -18.3287 N   0  0  0  0  0  0
  -26.5476  -22.3490  -19.4752 C   0  0  0  0  0  0
  -27.2459  -20.9621  -20.3108 S   0  0  0  0  0  0
  -28.8860  -21.6323  -20.7104 C   0  0  0  0  0  0
  -29.4328  -21.0441  -22.0031 C   0  0  0  0  0  0
  -29.4126  -21.6665  -23.2073 C   0  0  0  0  0  0
  -28.8052  -23.0805  -23.4869 C   0  0  0  0  0  0
  -27.9692  -23.1495  -24.4144 O   0  5  0  0  0  0
  -29.1904  -24.0378  -22.7804 O   0  0  0  0  0  0
  -29.8665  -20.9357  -24.3091 N   0  0  0  0  0  0
  -29.9085  -19.4881  -24.2418 C   0  0  2  0  0  0
  -30.6686  -19.1957  -23.0758 O   0  0  0  0  0  0
  -29.9879  -19.6175  -21.8862 C   0  0  0  0  0  0
  -30.6350  -19.5196  -25.6056 C   0  0  1  0  0  0
  -30.3051  -21.0370  -25.6134 C   0  0  0  0  0  0
  -30.3482  -21.9514  -26.4121 O   0  0  0  0  0  0
  -32.0502  -19.1615  -25.4704 N   0  0  0  0  0  0
  -33.0048  -19.1907  -26.4176 C   0  0  0  0  0  0
  -34.4495  -18.7865  -26.0282 C   0  0  2  0  0  0
  -34.6315  -17.2611  -26.2215 C   0  0  0  0  0  0
  -33.7553  -16.4871  -25.7739 O   0  5  0  0  0  0
  -35.6729  -16.8862  -26.8141 O   0  0  0  0  0  0
  -34.8562  -19.2262  -24.6123 C   0  0  0  0  0  0
  -35.8231  -20.2472  -24.4725 C   0  0  0  0  0  0
  -36.2019  -20.7110  -23.1981 C   0  0  0  0  0  0
  -35.6060  -20.1707  -22.0442 C   0  0  0  0  0  0
  -35.9671  -20.6367  -20.8134 O   0  0  0  0  0  0
  -34.6399  -19.1539  -22.1686 C   0  0  0  0  0  0
  -34.2823  -18.6676  -23.4419 C   0  0  0  0  0  0
  -32.7690  -19.5506  -27.5727 O   0  0  0  0  0  0
  -29.9433  -18.8713  -26.6712 O   0  0  0  0  0  0
  -29.9405  -17.4583  -26.5874 C   0  0  0  0  0  0
  -26.5484  -23.6107  -19.9025 N   0  0  0  0  0  0
  -25.8245  -24.2876  -18.9383 N   0  0  0  0  0  0
  -25.3993  -23.4779  -18.0131 N   0  0  0  0  0  0
  -26.4546  -20.4663  -17.4018 H   0  0  0  0  0  0
  -24.7694  -20.5081  -17.9531 H   0  0  0  0  0  0
  -25.2543  -21.4127  -16.5021 H   0  0  0  0  0  0
  -28.8478  -22.7159  -20.7561 H   0  0  0  0  0  0
  -29.5689  -21.4104  -19.8938 H   0  0  0  0  0  0
  -28.9117  -19.0391  -24.2597 H   0  0  0  0  0  0
  -30.6910  -19.5601  -21.0565 H   0  0  0  0  0  0
  -29.1715  -18.9277  -21.6678 H   0  0  0  0  0  0
  -32.3252  -18.8564  -24.5468 H   0  0  0  0  0  0
  -35.1141  -19.2774  -26.7404 H   0  0  0  0  0  0
  -36.2803  -20.6856  -25.3473 H   0  0  0  0  0  0
  -36.9430  -21.4910  -23.1060 H   0  0  0  0  0  0
  -35.4634  -20.2430  -20.1062 H   0  0  0  0  0  0
  -34.1671  -18.7474  -21.2869 H   0  0  0  0  0  0
  -33.5502  -17.8748  -23.5102 H   0  0  0  0  0  0
  -29.2837  -17.0416  -27.3498 H   0  0  0  0  0  0
  -29.5694  -17.1491  -25.6135 H   0  0  0  0  0  0
  -30.9364  -17.0397  -26.7345 H   0  0  0  0  0  0
  1  2  1  0  0  0
  1 37  1  0  0  0
  1 38  1  0  0  0
  1 39  1  0  0  0
  2 36  1  0  0  0
  2  3  1  0  0  0
  3  4  1  0  0  0
  3 34  2  0  0  0
  4  5  1  0  0  0
  5  6  1  0  0  0
  5 40  1  0  0  0
  5 41  1  0  0  0
  6 14  1  0  0  0
  6  7  2  0  0  0
  7  8  1  0  0  0
  7 11  1  0  0  0
  8  9  1  0  0  0
  8 10  2  0  0  0
 11 16  1  0  0  0
 11 12  1  0  0  0
 12 13  1  0  0  0
 12 15  1  0  0  0
 12 42  1  0  0  0
 13 14  1  0  0  0
 14 43  1  0  0  0
 14 44  1  0  0  0
 15 16  1  0  0  0
 15 18  1  0  0  0
 15 32  1  0  0  0
 16 17  2  0  0  0
 18 19  1  0  0  0
 18 45  1  0  0  0
 19 20  1  0  0  0
 19 31  2  0  0  0
 20 21  1  0  0  0
 20 24  1  0  0  0
 20 46  1  0  0  0
 21 22  1  0  0  0
 21 23  2  0  0  0
 24 30  1  0  0  0
 24 25  2  0  0  0
 25 26  1  0  0  0
 25 47  1  0  0  0
 26 27  2  0  0  0
 26 48  1  0  0  0
 27 28  1  0  0  0
 27 29  1  0  0  0
 28 49  1  0  0  0
 29 30  2  0  0  0
 29 50  1  0  0  0
 30 51  1  0  0  0
 32 33  1  0  0  0
 33 52  1  0  0  0
 33 53  1  0  0  0
 33 54  1  0  0  0
 34 35  1  0  0  0
 35 36  2  0  0  0
M  CHG  2   9  -1  22  -1
M  END
> <s_m_entry_id>
27307

> <s_m_entry_name>
data_maestro.20

> <s_m_Source_Path>
C:\Users\olshana1\Git\GramNeg-Accumulation\Gram Negative Permeation - OmpF

> <s_m_Source_File>
data_maestro.csv

> <i_m_Source_File_Index>
20

> <s_m_job_name>
glide-dock_Nicaido_neutral

> <s_i_glide_gridfile>
3POX-grid

> <i_i_glide_lignum>
25

> <i_i_glide_rotatable_bonds>
11

> <r_i_docking_score>
-5.59808671782227

> <r_i_glide_ligand_efficiency>
-0.155502408828396

> <r_i_glide_ligand_efficiency_sa>
-0.513457640365906

> <r_i_glide_ligand_efficiency_ln>
-1.22135127900397

> <r_i_glide_gscore>
-5.59808671782227

> <r_i_glide_lipo>
0

> <r_i_glide_hbond>
-1.12316153283802

> <r_i_glide_metal>
0

> <r_i_glide_rewards>
1.88844944296915e-09

> <r_i_glide_evdw>
-29.4885902404785

> <r_i_glide_ecoul>
-18.2013759613037

> <r_i_glide_erotb>
0.534860792752126

> <r_i_glide_esite>
-0.805150073405339

> <r_i_glide_emodel>
-84.8146429534463

> <r_i_glide_energy>
-47.6899662017822

> <r_i_glide_einternal>
4.35136651992798

> <i_i_glide_confnum>
103

> <i_i_glide_posenum>
341

> <r_i_glide_eff_state_penalty>
0

> <r_glide_res:A132_vdw>
-2.01831706385197

> <r_glide_res:A132_coul>
-49.8052767847922

> <r_glide_res:A132_hbond>
0

> <r_glide_res:A132_dist>
2.4148220708811

> <r_glide_res:A132_Eint>
-51.8235938486442

> <r_glide_res:A117_vdw>
-3.13478169791893

> <r_glide_res:A117_coul>
38.5646209290626

> <r_glide_res:A117_hbond>
0

> <r_glide_res:A117_dist>
2.05338899905617

> <r_glide_res:A117_Eint>
35.4298392311437

> <r_glide_res:A113_vdw>
-3.34138999201439

> <r_glide_res:A113_coul>
31.5834927734131

> <r_glide_res:A113_hbond>
-0.32

> <r_glide_res:A113_dist>
1.85147193065957

> <r_glide_res:A113_Eint>
27.9221027813988

> <r_glide_res:A82_vdw>
0.102202358954359

> <r_glide_res:A82_coul>
-65.699013783088

> <r_glide_res:A82_hbond>
-0.221971942412264

> <r_glide_res:A82_dist>
1.82436737533464

> <r_glide_res:A82_Eint>
-65.8187833665459

> <r_glide_res:A42_vdw>
-1.13248697785489

> <r_glide_res:A42_coul>
-64.0576178014833

> <r_glide_res:A42_hbond>
-0.23662564862596

> <r_glide_res:A42_dist>
2.07348968117315

> <r_glide_res:A42_Eint>
-65.4267304279641

> <r_glide_res:A16_vdw>
0.267898851539132

> <r_glide_res:A16_coul>
-67.5343955649477

> <r_glide_res:A16_hbond>
-0.187187446044526

> <r_glide_res:A16_dist>
1.88241852171653

> <r_glide_res:A16_Eint>
-67.4536841594531

> <s_m_source_file>
ligprep_Nicaido_neutral.maegz

> <i_m_source_file_index>
20

> <i_lp_mmshare_version>
58128

> <i_f3d_flags>
0

> <s_lp_Force_Field>
S-OPLS

> <r_lp_Energy>
52.146636

> <b_lp_Chiralities_Consistent>
1

> <s_lp_Variant>
Moxalactam-1

> <s_epik_input>
bjFubmMobjFbQ0gzXSlTW0NIMl1DKD1DMkMoPU8pW09IXSlbQ0gyXU9bQ0BASF0oTjIzKVtDQF0oQzM9TykoT1tDSDNdKVtOSF1DKD1PKVtDQEhdKEMoPU8pW09IXSljNFtjSF1bY0hdYyhbT0hdKVtjSF1bY0hdNA==

> <s_epik_cmdline>
J2VwaWtfcHl0aG9uJywgJy1waHQnLCAnMC4wJywgJy1waCcsICc3LjQnLCAnLW50JywgJy1tYScsICc1MDAnLCAnLWltYWUnLCAnPGluZmlsZS5tYWU+JywgJy1vbWFlJywgJzxvdXRmaWxlLm1hZT4n

> <r_lp_tautomer_probability>
1

> <r_epik_Ionization_Penalty>
  0.0029

> <r_epik_Ionization_Penalty_Charging>
  0.0001

> <r_epik_Ionization_Penalty_Neutral>
  0.0029

> <r_epik_State_Penalty>
  0.0000

> <r_epik_Charging_Adjusted_Penalty>
5.78268703870383e-05

> <i_epik_Tot_Q>
-2

> <i_epik_Tot_abs_Q>
2

> <s_epik_Chemistry_Notes>
This compound contains an acetal/aminal-like group ( X-CH(R)-Y where X, Y are N, S, or O) that may be acid/base labile, releasing an aldehyde.

> <s_m_subgroup_title>
glide-dock_Nicaido_neutral_pv1

> <s_m_subgroupid>
glide-dock_Nicaido_neutral_pv1

> <b_m_subgroup_collapsed>
0

$$$$
Imipenem
                    3D
 Schrodinger Suite 2022-2.
 37 38  0  0  1  0            999 V2000
  -23.1376  -19.9869  -26.4135 C   0  0  0  0  0  0
  -23.7598  -21.3560  -26.1027 C   0  0  2  0  0  0
  -23.6918  -21.6956  -24.6085 C   0  0  1  0  0  0
  -24.6485  -20.9663  -23.6402 C   0  0  2  0  0  0
  -24.3478  -20.5827  -22.1832 C   0  0  0  0  0  0
  -25.3467  -21.4118  -21.4197 C   0  0  0  0  0  0
  -25.6467  -21.0713  -19.7060 S   0  0  0  0  0  0
  -27.4134  -20.6596  -19.6365 C   0  0  0  0  0  0
  -27.7282  -19.3601  -20.3891 C   0  0  0  0  0  0
  -29.1689  -19.1092  -20.4134 N   0  3  0  0  0  0
  -29.7626  -18.1627  -21.1589 C   0  0  0  0  0  0
  -31.0866  -17.9496  -21.1004 N   0  0  0  0  0  0
  -25.8745  -22.3656  -22.1983 C   0  0  0  0  0  0
  -25.3573  -22.2300  -23.4819 N   0  0  0  0  0  0
  -24.4712  -22.9817  -24.2296 C   0  0  0  0  0  0
  -24.3689  -24.1777  -24.4132 O   0  0  0  0  0  0
  -26.8853  -23.5083  -21.8612 C   0  0  0  0  0  0
  -27.5689  -23.9496  -22.8134 O   0  5  0  0  0  0
  -26.8803  -23.9496  -20.6927 O   0  0  0  0  0  0
  -23.0947  -22.3440  -26.8659 O   0  0  0  0  0  0
  -23.6726  -19.1861  -25.9004 H   0  0  0  0  0  0
  -23.1689  -19.7641  -27.4796 H   0  0  0  0  0  0
  -22.0952  -19.9389  -26.0975 H   0  0  0  0  0  0
  -24.7992  -21.3424  -26.4341 H   0  0  0  0  0  0
  -22.6725  -21.6873  -24.2209 H   0  0  0  0  0  0
  -25.3014  -20.2515  -24.1459 H   0  0  0  0  0  0
  -23.3349  -20.8548  -21.8850 H   0  0  0  0  0  0
  -24.4936  -19.5174  -22.0003 H   0  0  0  0  0  0
  -27.9975  -21.4891  -20.0344 H   0  0  0  0  0  0
  -27.6953  -20.5538  -18.5878 H   0  0  0  0  0  0
  -27.2245  -18.5125  -19.9234 H   0  0  0  0  0  0
  -27.3737  -19.4190  -21.4183 H   0  0  0  0  0  0
  -29.1689  -17.5496  -21.8224 H   0  0  0  0  0  0
  -31.6424  -18.5040  -20.4598 H   0  0  0  0  0  0
  -31.5014  -17.1764  -21.6134 H   0  0  0  0  0  0
  -22.1628  -22.1796  -26.8498 H   0  0  0  0  0  0
  -29.7511  -19.5496  -19.6819 H   0  0  0  0  0  0
  1  2  1  0  0  0
  1 21  1  0  0  0
  1 22  1  0  0  0
  1 23  1  0  0  0
  2  3  1  0  0  0
  2 20  1  0  0  0
  2 24  1  0  0  0
  3 15  1  0  0  0
  3  4  1  0  0  0
  3 25  1  0  0  0
  4 14  1  0  0  0
  4  5  1  0  0  0
  4 26  1  0  0  0
  5  6  1  0  0  0
  5 27  1  0  0  0
  5 28  1  0  0  0
  6  7  1  0  0  0
  6 13  2  0  0  0
  7  8  1  0  0  0
  8  9  1  0  0  0
  8 29  1  0  0  0
  8 30  1  0  0  0
  9 10  1  0  0  0
  9 31  1  0  0  0
  9 32  1  0  0  0
 10 11  2  3  0  0
 10 37  1  0  0  0
 11 12  1  0  0  0
 11 33  1  0  0  0
 12 34  1  0  0  0
 12 35  1  0  0  0
 13 14  1  0  0  0
 13 17  1  0  0  0
 14 15  1  0  0  0
 15 16  2  0  0  0
 17 18  1  0  0  0
 17 19  2  0  0  0
 20 36  1  0  0  0
M  CHG  2  10   1  18  -1
M  END
> <s_m_entry_id>
27308

> <s_m_entry_name>
data_maestro.12

> <s_m_Source_Path>
C:\Users\olshana1\Git\GramNeg-Accumulation\Gram Negative Permeation - OmpF

> <s_m_Source_File>
data_maestro.csv

> <i_m_Source_File_Index>
12

> <s_m_job_name>
glide-dock_Nicaido_neutral

> <s_i_glide_gridfile>
3POX-grid

> <i_i_glide_lignum>
16

> <i_i_glide_rotatable_bonds>
7

> <r_i_docking_score>
-5.58991705542718

> <r_i_glide_ligand_efficiency>
-0.279495852771359

> <r_i_glide_ligand_efficiency_sa>
-0.758668465770205

> <r_i_glide_ligand_efficiency_ln>
-1.39897187116975

> <r_i_glide_gscore>
-5.58991705542718

> <r_i_glide_lipo>
0

> <r_i_glide_hbond>
-0.726870006154846

> <r_i_glide_metal>
0

> <r_i_glide_rewards>
-1.36808809090909

> <r_i_glide_evdw>
-15.1618614196777

> <r_i_glide_ecoul>
-22.138729095459

> <r_i_glide_erotb>
1.02473259195513

> <r_i_glide_esite>
-0.440789115015639

> <r_i_glide_emodel>
-69.0829351551895

> <r_i_glide_energy>
-37.3005905151367

> <r_i_glide_einternal>
4.30796146392822

> <i_i_glide_confnum>
37

> <i_i_glide_posenum>
95

> <r_i_glide_eff_state_penalty>
0

> <r_glide_res:A132_vdw>
-0.965109491364544

> <r_glide_res:A132_coul>
-30.69614208139

> <r_glide_res:A132_hbond>
-0.313752812065365

> <r_glide_res:A132_dist>
2.01294266591979

> <r_glide_res:A132_Eint>
-31.9750043848199

> <r_glide_res:A117_vdw>
-2.42581415372552

> <r_glide_res:A117_coul>
-9.84228612544742

> <r_glide_res:A117_hbond>
0

> <r_glide_res:A117_dist>
2.19357140533242

> <r_glide_res:A117_Eint>
-12.2681002791729

> <r_glide_res:A113_vdw>
2.66734910945288

> <r_glide_res:A113_coul>
-27.2537168831945

> <r_glide_res:A113_hbond>
-0.213569753018951

> <r_glide_res:A113_dist>
1.56489385517408

> <r_glide_res:A113_Eint>
-24.7999375267606

> <r_glide_res:A82_vdw>
2.3819182220247

> <r_glide_res:A82_coul>
-34.9394046585059

> <r_glide_res:A82_hbond>
-0.19954744107053

> <r_glide_res:A82_dist>
1.59909488214106

> <r_glide_res:A82_Eint>
-32.7570338775518

> <r_glide_res:A42_vdw>
-1.79693512742927

> <r_glide_res:A42_coul>
-16.8645786220694

> <r_glide_res:A42_hbond>
0

> <r_glide_res:A42_dist>
2.51445743373063

> <r_glide_res:A42_Eint>
-18.6615137494987

> <r_glide_res:A16_vdw>
-0.126226306423049

> <r_glide_res:A16_coul>
-1.40816232661624

> <r_glide_res:A16_hbond>
0

> <r_glide_res:A16_dist>
5.74911586588126

> <r_glide_res:A16_Eint>
-1.53438863303929

> <s_m_source_file>
ligprep_Nicaido_neutral.maegz

> <i_m_source_file_index>
12

> <i_lp_mmshare_version>
58128

> <i_f3d_flags>
0

> <s_lp_Force_Field>
S-OPLS

> <r_lp_Energy>
18.714001

> <b_lp_Chiralities_Consistent>
1

> <s_lp_Variant>
Imipenem-1

> <s_epik_input>
W0NIM11bQ0BASF0oW09IXSlbQ0BASF0xQyg9TylOKFtDQEhdMTIpQyhDKD1PKVtPSF0pPUMoW0NIMl0yKVNbQ0gyXVtDSDJdL049W0NIXS9bTkgyXQ==

> <s_epik_cmdline>
J2VwaWtfcHl0aG9uJywgJy1waHQnLCAnMC4wJywgJy1waCcsICc3LjQnLCAnLW50JywgJy1tYScsICc1MDAnLCAnLWltYWUnLCAnPGluZmlsZS5tYWU+JywgJy1vbWFlJywgJzxvdXRmaWxlLm1hZT4n

> <r_lp_tautomer_probability>
1

> <r_epik_Ionization_Penalty>
  0.0001

> <r_epik_Ionization_Penalty_Charging>
  0.0001

> <r_epik_Ionization_Penalty_Neutral>
  0.0000

> <r_epik_State_Penalty>
  0.0000

> <r_epik_Charging_Adjusted_Penalty>
9.5675940864495e-05

> <i_epik_Tot_Q>
0

> <i_epik_Tot_abs_Q>
2

> <s_epik_Chemistry_Notes>
This compound has an imine and may undergo hydrolysis.

> <s_m_subgroup_title>
glide-dock_Nicaido_neutral_pv1

> <s_m_subgroupid>
glide-dock_Nicaido_neutral_pv1

> <b_m_subgroup_collapsed>
0

$$$$
Cefmetazole
                    3D
 Schrodinger Suite 2022-2.
 46 48  0  0  1  0            999 V2000
  -34.9458  -18.6589  -25.3034 C   0  0  0  0  0  0
  -34.4572  -19.2164  -26.5497 N   0  0  0  0  0  0
  -33.8132  -20.3589  -26.8292 C   0  0  0  0  0  0
  -33.3455  -21.5682  -25.6389 S   0  0  0  0  0  0
  -32.0275  -20.6253  -24.8154 C   0  0  0  0  0  0
  -31.4134  -21.3701  -23.6325 C   0  0  0  0  0  0
  -30.1892  -21.9795  -23.6353 C   0  0  0  0  0  0
  -29.6174  -22.4847  -22.4411 N   0  0  0  0  0  0
  -30.1723  -22.1973  -21.1274 C   0  0  2  0  0  0
  -29.0607  -23.0804  -20.5202 C   0  0  1  0  0  0
  -29.4178  -24.3495  -19.9866 O   0  0  0  0  0  0
  -30.0151  -24.3496  -18.7037 C   0  0  0  0  0  0
  -28.5870  -23.2920  -21.9774 C   0  0  0  0  0  0
  -27.7246  -23.9495  -22.5239 O   0  0  0  0  0  0
  -28.1247  -22.3246  -19.6819 N   0  0  0  0  0  0
  -26.9084  -22.7485  -19.3005 C   0  0  0  0  0  0
  -26.1115  -21.8057  -18.3910 C   0  0  0  0  0  0
  -25.0170  -22.6563  -17.2135 S   0  0  0  0  0  0
  -23.6234  -23.1228  -18.2748 C   0  0  0  0  0  0
  -22.8966  -24.2543  -17.6799 C   0  0  0  0  0  0
  -22.3263  -25.1496  -17.2135 N   0  0  0  0  0  0
  -26.4391  -23.8363  -19.6523 O   0  0  0  0  0  0
  -31.9299  -22.6348  -21.2134 S   0  0  0  0  0  0
  -32.3325  -21.3452  -22.4105 C   0  0  0  0  0  0
  -29.3324  -22.1592  -24.9478 C   0  0  0  0  0  0
  -28.0871  -22.2263  -24.8382 O   0  5  0  0  0  0
  -29.9647  -22.3495  -26.0133 O   0  0  0  0  0  0
  -33.5699  -20.4509  -28.1307 N   0  0  0  0  0  0
  -34.0936  -19.2828  -28.6512 N   0  0  0  0  0  0
  -34.6226  -18.5457  -27.7168 N   0  0  0  0  0  0
  -35.0797  -19.4466  -24.5617 H   0  0  0  0  0  0
  -34.2304  -17.9284  -24.9238 H   0  0  0  0  0  0
  -35.9048  -18.1660  -25.4659 H   0  0  0  0  0  0
  -32.4416  -19.6903  -24.4383 H   0  0  0  0  0  0
  -31.2818  -20.3235  -25.5487 H   0  0  0  0  0  0
  -30.0550  -21.1402  -20.8772 H   0  0  0  0  0  0
  -29.9678  -25.3490  -18.2754 H   0  0  0  0  0  0
  -29.5430  -23.6712  -17.9929 H   0  0  0  0  0  0
  -31.0627  -24.0925  -18.8134 H   0  0  0  0  0  0
  -28.4655  -21.4392  -19.3276 H   0  0  0  0  0  0
  -26.8080  -21.1987  -17.8098 H   0  0  0  0  0  0
  -25.5248  -21.1181  -19.0004 H   0  0  0  0  0  0
  -22.9467  -22.2777  -18.3988 H   0  0  0  0  0  0
  -23.9693  -23.4273  -19.2610 H   0  0  0  0  0  0
  -32.2669  -20.3688  -21.9290 H   0  0  0  0  0  0
  -33.3701  -21.4880  -22.7113 H   0  0  0  0  0  0
  1  2  1  0  0  0
  1 31  1  0  0  0
  1 32  1  0  0  0
  1 33  1  0  0  0
  2 30  1  0  0  0
  2  3  1  0  0  0
  3  4  1  0  0  0
  3 28  2  0  0  0
  4  5  1  0  0  0
  5  6  1  0  0  0
  5 34  1  0  0  0
  5 35  1  0  0  0
  6 24  1  0  0  0
  6  7  2  0  0  0
  7  8  1  0  0  0
  7 25  1  0  0  0
  8 13  1  0  0  0
  8  9  1  0  0  0
  9 10  1  0  0  0
  9 23  1  0  0  0
  9 36  1  0  0  0
 10 11  1  0  0  0
 10 13  1  0  0  0
 10 15  1  0  0  0
 11 12  1  0  0  0
 12 37  1  0  0  0
 12 38  1  0  0  0
 12 39  1  0  0  0
 13 14  2  0  0  0
 15 16  1  0  0  0
 15 40  1  0  0  0
 16 17  1  0  0  0
 16 22  2  0  0  0
 17 18  1  0  0  0
 17 41  1  0  0  0
 17 42  1  0  0  0
 18 19  1  0  0  0
 19 20  1  0  0  0
 19 43  1  0  0  0
 19 44  1  0  0  0
 20 21  3  0  0  0
 23 24  1  0  0  0
 24 45  1  0  0  0
 24 46  1  0  0  0
 25 26  1  0  0  0
 25 27  2  0  0  0
 28 29  1  0  0  0
 29 30  2  0  0  0
M  CHG  1  26  -1
M  END
> <s_m_entry_id>
27309

> <s_m_entry_name>
data_maestro.3

> <s_m_Source_Path>
C:\Users\olshana1\Git\GramNeg-Accumulation\Gram Negative Permeation - OmpF

> <s_m_Source_File>
data_maestro.csv

> <i_m_Source_File_Index>
3

> <s_m_job_name>
glide-dock_Nicaido_neutral

> <s_i_glide_gridfile>
3POX-grid

> <i_i_glide_lignum>
3

> <i_i_glide_rotatable_bonds>
10

> <r_i_docking_score>
-5.58441843398079

> <r_i_glide_ligand_efficiency>
-0.186147281132693

> <r_i_glide_ligand_efficiency_sa>
-0.578402882174681

> <r_i_glide_ligand_efficiency_ln>
-1.26884071531275

> <r_i_glide_gscore>
-5.58441843398079

> <r_i_glide_lipo>
0

> <r_i_glide_hbond>
-1.11674421414037

> <r_i_glide_metal>
0

> <r_i_glide_rewards>
-0.20093324532049

> <r_i_glide_evdw>
-22.9655723571777

> <r_i_glide_ecoul>
-19.9992580413818

> <r_i_glide_erotb>
0.638850535935238

> <r_i_glide_esite>
-0.757424186389008

> <r_i_glide_emodel>
-71.5843440738162

> <r_i_glide_energy>
-42.9648303985596

> <r_i_glide_einternal>
4.04533624649048

> <i_i_glide_confnum>
110

> <i_i_glide_posenum>
63

> <r_i_glide_eff_state_penalty>
0

> <r_glide_res:A132_vdw>
-1.50137162762103

> <r_glide_res:A132_coul>
-35.2888665228366

> <r_glide_res:A132_hbond>
-0.192954207319908

> <r_glide_res:A132_dist>
1.8678823669246

> <r_glide_res:A132_Eint>
-36.9831923577775

> <r_glide_res:A117_vdw>
-0.644782791482181

> <r_glide_res:A117_coul>
22.0116312097841

> <r_glide_res:A117_hbond>
0

> <r_glide_res:A117_dist>
5.42121008737507

> <r_glide_res:A117_Eint>
21.3668484183019

> <r_glide_res:A113_vdw>
-3.12081287589681

> <r_glide_res:A113_coul>
5.89440442006029

> <r_glide_res:A113_hbond>
0

> <r_glide_res:A113_dist>
2.20433456170808

> <r_glide_res:A113_Eint>
2.77359154416349

> <r_glide_res:A82_vdw>
-1.26708069983231

> <r_glide_res:A82_coul>
-42.7554919423775

> <r_glide_res:A82_hbond>
-0.16

> <r_glide_res:A82_dist>
1.80698014249421

> <r_glide_res:A82_Eint>
-44.1825726422098

> <r_glide_res:A42_vdw>
1.38881985998971

> <r_glide_res:A42_coul>
-54.8285734814751

> <r_glide_res:A42_hbond>
-0.414114413155695

> <r_glide_res:A42_dist>
1.76837991103595

> <r_glide_res:A42_Eint>
-53.8538680346411

> <r_glide_res:A16_vdw>
-1.48770109173694

> <r_glide_res:A16_coul>
-45.2177254906522

> <r_glide_res:A16_hbond>
-0.0296755936647704

> <r_glide_res:A16_dist>
2.03079794698219

> <r_glide_res:A16_Eint>
-46.7351021760539

> <s_m_source_file>
ligprep_Nicaido_neutral.maegz

> <i_m_source_file_index>
3

> <i_lp_mmshare_version>
58128

> <i_f3d_flags>
0

> <s_lp_Force_Field>
S-OPLS

> <r_lp_Energy>
32.161431

> <b_lp_Chiralities_Consistent>
1

> <s_lp_Variant>
Cefmetazole-1

> <s_epik_input>
bjFubmMobjFbQ0gzXSlTW0NIMl1DKD1DMkMoPU8pW09IXSlbQ0gyXVNbQ0BIXShOMjMpW0NAXShDMz1PKShPW0NIM10pW05IXUMoPU8pW0NIMl1TW0NIMl1DI04=

> <s_epik_cmdline>
J2VwaWtfcHl0aG9uJywgJy1waHQnLCAnMC4wJywgJy1waCcsICc3LjQnLCAnLW50JywgJy1tYScsICc1MDAnLCAnLWltYWUnLCAnPGluZmlsZS5tYWU+JywgJy1vbWFlJywgJzxvdXRmaWxlLm1hZT4n

> <r_lp_tautomer_probability>
1

> <r_epik_Ionization_Penalty>
  0.0000

> <r_epik_Ionization_Penalty_Charging>
  0.0000

> <r_epik_Ionization_Penalty_Neutral>
  0.0000

> <r_epik_State_Penalty>
  0.0000

> <r_epik_Charging_Adjusted_Penalty>
8.27330724987756e-06

> <i_epik_Tot_Q>
-1

> <i_epik_Tot_abs_Q>
1

> <s_epik_Chemistry_Notes>
This compound contains an acetal/aminal-like group ( X-CH(R)-Y where X, Y are N, S, or O) that may be acid/base labile, releasing an aldehyde.

> <s_m_subgroup_title>
glide-dock_Nicaido_neutral_pv1

> <s_m_subgroupid>
glide-dock_Nicaido_neutral_pv1

> <b_m_subgroup_collapsed>
0

$$$$
Cefotaxime
                    3D
 Schrodinger Suite 2022-2.
 46 48  0  0  1  0            999 V2000
  -30.9557  -17.5488  -26.6484 C   0  0  0  0  0  0
  -30.1615  -18.7059  -26.0630 C   0  0  0  0  0  0
  -29.2530  -18.3021  -25.1674 O   0  0  0  0  0  0
  -28.4182  -19.2424  -24.5086 C   0  0  0  0  0  0
  -29.1861  -20.0729  -23.4872 C   0  0  0  0  0  0
  -29.2678  -21.4204  -23.5116 C   0  0  0  0  0  0
  -30.0260  -22.0551  -22.5390 N   0  0  0  0  0  0
  -31.4298  -21.6903  -22.4213 C   0  0  1  0  0  0
  -31.4605  -22.7556  -21.3096 C   0  0  2  0  0  0
  -30.1900  -23.3059  -21.9877 C   0  0  0  0  0  0
  -29.5781  -24.3495  -22.0986 O   0  0  0  0  0  0
  -32.6292  -23.6384  -21.3081 N   0  0  0  0  0  0
  -33.1087  -24.4316  -22.2868 C   0  0  0  0  0  0
  -34.3716  -25.2070  -21.8882 C   0  0  0  0  0  0
  -35.2499  -24.5290  -20.8784 C   0  0  0  0  0  0
  -36.0422  -25.2536  -20.0144 C   0  0  0  0  0  0
  -36.8877  -24.2374  -18.8730 S   0  0  0  0  0  0
  -36.1745  -22.8386  -19.6542 C   0  0  0  0  0  0
  -36.4037  -21.5501  -19.2134 N   0  0  0  0  0  0
  -35.3939  -23.1443  -20.6870 N   0  0  0  0  0  0
  -34.7025  -26.3621  -22.3349 N   0  0  0  0  0  0
  -33.7691  -26.9456  -23.2119 O   0  0  0  0  0  0
  -34.3085  -28.1680  -23.6812 C   0  0  0  0  0  0
  -32.5858  -24.5385  -23.3981 O   0  0  0  0  0  0
  -31.5833  -19.8808  -22.0907 S   0  0  0  0  0  0
  -29.8728  -19.2966  -22.3677 C   0  0  0  0  0  0
  -28.7212  -22.3425  -24.6246 C   0  0  0  0  0  0
  -29.5688  -23.0516  -25.2132 O   0  5  0  0  0  0
  -27.4878  -22.3494  -24.8133 O   0  0  0  0  0  0
  -30.3682  -19.8685  -26.4134 O   0  0  0  0  0  0
  -30.2825  -16.8209  -27.1035 H   0  0  0  0  0  0
  -31.6530  -17.9019  -27.4077 H   0  0  0  0  0  0
  -31.5215  -17.0471  -25.8628 H   0  0  0  0  0  0
  -27.6268  -18.7016  -23.9914 H   0  0  0  0  0  0
  -27.9237  -19.8683  -25.2507 H   0  0  0  0  0  0
  -31.9785  -21.9616  -23.3268 H   0  0  0  0  0  0
  -31.2828  -22.2816  -20.3582 H   0  0  0  0  0  0
  -33.1664  -23.6206  -20.4505 H   0  0  0  0  0  0
  -36.1511  -26.3264  -19.9566 H   0  0  0  0  0  0
  -35.7346  -20.8347  -19.4766 H   0  0  0  0  0  0
  -36.7692  -21.4220  -18.2760 H   0  0  0  0  0  0
  -33.6017  -28.6407  -24.3644 H   0  0  0  0  0  0
  -34.4967  -28.8611  -22.8597 H   0  0  0  0  0  0
  -35.2402  -28.0054  -24.2250 H   0  0  0  0  0  0
  -29.2980  -19.4198  -21.4489 H   0  0  0  0  0  0
  -29.8972  -18.2279  -22.5840 H   0  0  0  0  0  0
  1  2  1  0  0  0
  1 31  1  0  0  0
  1 32  1  0  0  0
  1 33  1  0  0  0
  2  3  1  0  0  0
  2 30  2  0  0  0
  3  4  1  0  0  0
  4  5  1  0  0  0
  4 34  1  0  0  0
  4 35  1  0  0  0
  5 26  1  0  0  0
  5  6  2  0  0  0
  6  7  1  0  0  0
  6 27  1  0  0  0
  7 10  1  0  0  0
  7  8  1  0  0  0
  8  9  1  0  0  0
  8 25  1  0  0  0
  8 36  1  0  0  0
  9 10  1  0  0  0
  9 12  1  0  0  0
  9 37  1  0  0  0
 10 11  2  0  0  0
 12 13  1  0  0  0
 12 38  1  0  0  0
 13 14  1  0  0  0
 13 24  2  0  0  0
 14 15  1  0  0  0
 14 21  2  3  0  0
 15 20  1  0  0  0
 15 16  2  0  0  0
 16 17  1  0  0  0
 16 39  1  0  0  0
 17 18  1  0  0  0
 18 19  1  0  0  0
 18 20  2  0  0  0
 19 40  1  0  0  0
 19 41  1  0  0  0
 21 22  1  0  0  0
 22 23  1  0  0  0
 23 42  1  0  0  0
 23 43  1  0  0  0
 23 44  1  0  0  0
 25 26  1  0  0  0
 26 45  1  0  0  0
 26 46  1  0  0  0
 27 28  1  0  0  0
 27 29  2  0  0  0
M  CHG  1  28  -1
M  END
> <s_m_entry_id>
27310

> <s_m_entry_name>
data_maestro.6

> <s_m_Source_Path>
C:\Users\olshana1\Git\GramNeg-Accumulation\Gram Negative Permeation - OmpF

> <s_m_Source_File>
data_maestro.csv

> <i_m_Source_File_Index>
6

> <s_m_job_name>
glide-dock_Nicaido_neutral

> <s_i_glide_gridfile>
3POX-grid

> <i_i_glide_lignum>
8

> <i_i_glide_rotatable_bonds>
9

> <r_i_docking_score>
-5.57615833349609

> <r_i_glide_ligand_efficiency>
-0.18587194444987

> <r_i_glide_ligand_efficiency_sa>
-0.5775473470847

> <r_i_glide_ligand_efficiency_ln>
-1.26696393048162

> <r_i_glide_gscore>
-5.57615833349609

> <r_i_glide_lipo>
-0.0368706912283083

> <r_i_glide_hbond>
-1.34005328190166

> <r_i_glide_metal>
0

> <r_i_glide_rewards>
-0.310459340917796

> <r_i_glide_evdw>
-27.7943954467773

> <r_i_glide_ecoul>
-17.7697868347168

> <r_i_glide_erotb>
0.680611118548691

> <r_i_glide_esite>
-0.514198340450624

> <r_i_glide_emodel>
-71.5540946735987

> <r_i_glide_energy>
-45.5641822814941

> <r_i_glide_einternal>
6.05441904067993

> <i_i_glide_confnum>
239

> <i_i_glide_posenum>
78

> <r_i_glide_eff_state_penalty>
0

> <r_glide_res:A132_vdw>
-0.975894276846232

> <r_glide_res:A132_coul>
-29.4630100584663

> <r_glide_res:A132_hbond>
-0.000922983887629744

> <r_glide_res:A132_dist>
2.48907251101402

> <r_glide_res:A132_Eint>
-30.4398273192002

> <r_glide_res:A117_vdw>
-3.819867274446

> <r_glide_res:A117_coul>
22.7780250506664

> <r_glide_res:A117_hbond>
0

> <r_glide_res:A117_dist>
2.44629183432673

> <r_glide_res:A117_Eint>
18.9581577762204

> <r_glide_res:A113_vdw>
-4.17033493984347

> <r_glide_res:A113_coul>
15.4554848701005

> <r_glide_res:A113_hbond>
-0.278241656024452

> <r_glide_res:A113_dist>
2.04897644019214

> <r_glide_res:A113_Eint>
11.0069082742326

> <r_glide_res:A82_vdw>
-2.40622814832145

> <r_glide_res:A82_coul>
-47.5833321059229

> <r_glide_res:A82_hbond>
-0.148619874639505

> <r_glide_res:A82_dist>
1.95615108392428

> <r_glide_res:A82_Eint>
-50.1381801288839

> <r_glide_res:A42_vdw>
6.65744027021031

> <r_glide_res:A42_coul>
-62.8854839681978

> <r_glide_res:A42_hbond>
-0.4

> <r_glide_res:A42_dist>
1.60001058199827

> <r_glide_res:A42_Eint>
-56.6280436979875

> <r_glide_res:A16_vdw>
-0.4199512213344

> <r_glide_res:A16_coul>
-40.4645544834291

> <r_glide_res:A16_hbond>
-0.0704424729808502

> <r_glide_res:A16_dist>
2.14166549927928

> <r_glide_res:A16_Eint>
-40.9549481777444

> <s_m_source_file>
ligprep_Nicaido_neutral.maegz

> <i_m_source_file_index>
6

> <i_lp_mmshare_version>
58128

> <i_f3d_flags>
0

> <s_lp_Force_Field>
S-OPLS

> <r_lp_Energy>
51.702138

> <b_lp_Chiralities_Consistent>
1

> <s_lp_Variant>
Cefotaxime-2

> <s_epik_input>
W0NIM11DKD1PKU9bQ0gyXUMoPUMxQyg9TylbT0hdKVtDSDJdU1tDQEBIXShOMTIpW0NASF0oQzI9TylbTkhdQyg9TykvQyg9Ti9PW0NIM10pYzNbY0hdc2MobjMpW05IMl0=

> <s_epik_cmdline>
J2VwaWtfcHl0aG9uJywgJy1waHQnLCAnMC4wJywgJy1waCcsICc3LjQnLCAnLW50JywgJy1tYScsICc1MDAnLCAnLWltYWUnLCAnPGluZmlsZS5tYWU+JywgJy1vbWFlJywgJzxvdXRmaWxlLm1hZT4n

> <r_lp_tautomer_probability>
1

> <r_epik_Ionization_Penalty>
  0.0004

> <r_epik_Ionization_Penalty_Charging>
  0.0000

> <r_epik_Ionization_Penalty_Neutral>
  0.0004

> <r_epik_State_Penalty>
  0.0000

> <r_epik_Charging_Adjusted_Penalty>
5.45682606121274e-06

> <i_epik_Tot_Q>
-1

> <i_epik_Tot_abs_Q>
1

> <s_epik_Chemistry_Notes>
This compound has an ester and may undergo hydrolysis at high or low pH. This compound has an imine and may undergo hydrolysis. This compound contains an acetal/aminal-like group ( X-CH(R)-Y where X, Y are N, S, or O) that may be acid/base labile, releasing an aldehyde.

> <s_m_subgroup_title>
glide-dock_Nicaido_neutral_pv1

> <s_m_subgroupid>
glide-dock_Nicaido_neutral_pv1

> <b_m_subgroup_collapsed>
0

$$$$
Cefsulodin
                    3D
 Schrodinger Suite 2022-2.
 55 58  0  0  1  0            999 V2000
  -24.1088  -24.5366  -22.8909 O   0  0  0  0  0  0
  -23.9702  -23.4724  -22.3218 C   0  0  0  0  0  0
  -22.8018  -22.6072  -21.7925 C   0  0  2  0  0  0
  -22.2622  -23.0585  -20.5172 N   0  0  0  0  0  0
  -21.0758  -23.6575  -20.3429 C   0  0  0  0  0  0
  -20.6522  -24.0208  -18.9068 C   0  0  2  0  0  0
  -20.7677  -25.8562  -18.6088 S   0  0  0  0  0  0
  -19.3957  -26.3496  -18.8165 O   0  0  0  0  0  0
  -21.7238  -26.3488  -19.6127 O   0  5  0  0  0  0
  -21.2121  -25.9987  -17.2114 O   0  0  0  0  0  0
  -21.3890  -23.2134  -17.8279 C   0  0  0  0  0  0
  -22.7329  -23.4909  -17.4766 C   0  0  0  0  0  0
  -23.3764  -22.7444  -16.4699 C   0  0  0  0  0  0
  -22.6852  -21.7116  -15.8122 C   0  0  0  0  0  0
  -21.3552  -21.4221  -16.1611 C   0  0  0  0  0  0
  -20.7079  -22.1690  -17.1630 C   0  0  0  0  0  0
  -20.3273  -23.9157  -21.2877 O   0  0  0  0  0  0
  -23.8558  -21.5021  -21.6007 C   0  0  1  0  0  0
  -24.8661  -22.4882  -21.9320 N   0  0  0  0  0  0
  -26.2327  -22.1538  -21.9865 C   0  0  0  0  0  0
  -27.1311  -23.1329  -22.8150 C   0  0  0  0  0  0
  -27.5694  -22.7039  -23.9061 O   0  5  0  0  0  0
  -27.2883  -24.2846  -22.3476 O   0  0  0  0  0  0
  -26.7339  -21.0582  -21.3467 C   0  0  0  0  0  0
  -28.1891  -20.5963  -21.4707 C   0  0  0  0  0  0
  -28.5040  -19.9660  -22.7820 N   0  3  0  0  0  0
  -27.5325  -19.5496  -23.6422 C   0  0  0  0  0  0
  -27.8601  -19.0185  -24.9027 C   0  0  0  0  0  0
  -29.2165  -18.8954  -25.2740 C   0  0  0  0  0  0
  -29.6082  -18.3935  -26.6319 C   0  0  0  0  0  0
  -28.7690  -17.5421  -27.2135 N   0  0  0  0  0  0
  -30.6552  -18.7492  -27.1688 O   0  0  0  0  0  0
  -30.2055  -19.3030  -24.3515 C   0  0  0  0  0  0
  -29.8164  -19.8345  -23.1052 C   0  0  0  0  0  0
  -25.8967  -20.1151  -20.4780 C   0  0  0  0  0  0
  -24.2876  -20.7847  -19.9890 S   0  0  0  0  0  0
  -22.0518  -22.3313  -22.5350 H   0  0  0  0  0  0
  -22.8112  -22.8483  -19.6925 H   0  0  0  0  0  0
  -19.5907  -23.7878  -18.8226 H   0  0  0  0  0  0
  -23.2719  -24.2871  -17.9700 H   0  0  0  0  0  0
  -24.3998  -22.9630  -16.2032 H   0  0  0  0  0  0
  -23.1701  -21.1366  -15.0382 H   0  0  0  0  0  0
  -20.8284  -20.6244  -15.6600 H   0  0  0  0  0  0
  -19.6847  -21.9338  -17.4170 H   0  0  0  0  0  0
  -23.7942  -20.7299  -22.3716 H   0  0  0  0  0  0
  -28.8599  -21.4483  -21.3472 H   0  0  0  0  0  0
  -28.4511  -19.8692  -20.6988 H   0  0  0  0  0  0
  -26.5023  -19.6372  -23.3356 H   0  0  0  0  0  0
  -27.0626  -18.7035  -25.5625 H   0  0  0  0  0  0
  -27.9392  -17.1782  -26.7361 H   0  0  0  0  0  0
  -29.0208  -17.1103  -28.0895 H   0  0  0  0  0  0
  -31.2552  -19.2199  -24.5981 H   0  0  0  0  0  0
  -30.5272  -20.1674  -22.3615 H   0  0  0  0  0  0
  -25.7429  -19.1800  -21.0189 H   0  0  0  0  0  0
  -26.4398  -19.8672  -19.5641 H   0  0  0  0  0  0
  1  2  2  0  0  0
  2 19  1  0  0  0
  2  3  1  0  0  0
  3  4  1  0  0  0
  3 18  1  0  0  0
  3 37  1  0  0  0
  4  5  1  0  0  0
  4 38  1  0  0  0
  5  6  1  0  0  0
  5 17  2  0  0  0
  6  7  1  0  0  0
  6 11  1  0  0  0
  6 39  1  0  0  0
  7  8  2  0  0  0
  7  9  1  0  0  0
  7 10  2  0  0  0
 11 16  1  0  0  0
 11 12  2  0  0  0
 12 13  1  0  0  0
 12 40  1  0  0  0
 13 14  2  0  0  0
 13 41  1  0  0  0
 14 15  1  0  0  0
 14 42  1  0  0  0
 15 16  2  0  0  0
 15 43  1  0  0  0
 16 44  1  0  0  0
 18 36  1  0  0  0
 18 19  1  0  0  0
 18 45  1  0  0  0
 19 20  1  0  0  0
 20 21  1  0  0  0
 20 24  2  0  0  0
 21 22  1  0  0  0
 21 23  2  0  0  0
 24 25  1  0  0  0
 24 35  1  0  0  0
 25 26  1  0  0  0
 25 46  1  0  0  0
 25 47  1  0  0  0
 26 34  1  0  0  0
 26 27  2  0  0  0
 27 28  1  0  0  0
 27 48  1  0  0  0
 28 29  2  0  0  0
 28 49  1  0  0  0
 29 30  1  0  0  0
 29 33  1  0  0  0
 30 31  1  0  0  0
 30 32  2  0  0  0
 31 50  1  0  0  0
 31 51  1  0  0  0
 33 34  2  0  0  0
 33 52  1  0  0  0
 34 53  1  0  0  0
 35 36  1  0  0  0
 35 54  1  0  0  0
 35 55  1  0  0  0
M  CHG  3   9  -1  22  -1  26   1
M  END
> <s_m_entry_id>
27311

> <s_m_entry_name>
data_maestro.27

> <s_m_Source_Path>
C:\Users\olshana1\Git\GramNeg-Accumulation\Gram Negative Permeation - OmpF

> <s_m_Source_File>
data_maestro.csv

> <i_m_Source_File_Index>
27

> <s_m_job_name>
glide-dock_Nicaido_neutral

> <s_i_glide_gridfile>
3POX-grid

> <i_i_glide_lignum>
34

> <i_i_glide_rotatable_bonds>
9

> <r_i_docking_score>
-5.57486752722563

> <r_i_glide_ligand_efficiency>
-0.154857431311823

> <r_i_glide_ligand_efficiency_sa>
-0.511327971531552

> <r_i_glide_ligand_efficiency_ln>
-1.21628547892581

> <r_i_glide_gscore>
-5.57486752722563

> <r_i_glide_lipo>
0

> <r_i_glide_hbond>
-0.536931445947997

> <r_i_glide_metal>
0

> <r_i_glide_rewards>
5.40950145961466e-06

> <r_i_glide_evdw>
-25.0641422271729

> <r_i_glide_ecoul>
-23.1774024963379

> <r_i_glide_erotb>
0.364921022123239

> <r_i_glide_esite>
-0.673045027093008

> <r_i_glide_emodel>
-86.9990322665074

> <r_i_glide_energy>
-48.2415447235107

> <r_i_glide_einternal>
6.68684005737305

> <i_i_glide_confnum>
11

> <i_i_glide_posenum>
321

> <r_i_glide_eff_state_penalty>
0

> <r_glide_res:A132_vdw>
-1.82784318067174

> <r_glide_res:A132_coul>
-43.3987564387855

> <r_glide_res:A132_hbond>
-0.0107710739920624

> <r_glide_res:A132_dist>
2.43271478868444

> <r_glide_res:A132_Eint>
-45.2373706934493

> <r_glide_res:A117_vdw>
-2.53234870923751

> <r_glide_res:A117_coul>
-13.6909765623956

> <r_glide_res:A117_hbond>
-0.16

> <r_glide_res:A117_dist>
1.70320790551252

> <r_glide_res:A117_Eint>
-16.3833252716331

> <r_glide_res:A113_vdw>
-1.13599790040543

> <r_glide_res:A113_coul>
4.76368939095368

> <r_glide_res:A113_hbond>
0

> <r_glide_res:A113_dist>
3.17847059838911

> <r_glide_res:A113_Eint>
3.62769149054825

> <r_glide_res:A82_vdw>
1.96943983425296

> <r_glide_res:A82_coul>
-45.3450028661795

> <r_glide_res:A82_hbond>
-0.2

> <r_glide_res:A82_dist>
1.62757615727913

> <r_glide_res:A82_Eint>
-43.5755630319265

> <r_glide_res:A42_vdw>
-1.55550373840314

> <r_glide_res:A42_coul>
-28.8605610473536

> <r_glide_res:A42_hbond>
-0.0565719440383771

> <r_glide_res:A42_dist>
2.37880364539525

> <r_glide_res:A42_Eint>
-30.4726367297951

> <r_glide_res:A16_vdw>
-0.415782323956566

> <r_glide_res:A16_coul>
-16.3093258430452

> <r_glide_res:A16_hbond>
0

> <r_glide_res:A16_dist>
2.58610630786259

> <r_glide_res:A16_Eint>
-16.7251081670018

> <s_m_source_file>
ligprep_Nicaido_neutral.maegz

> <i_m_source_file_index>
27

> <i_lp_mmshare_version>
58128

> <i_f3d_flags>
0

> <s_lp_Force_Field>
S-OPLS

> <r_lp_Energy>
54.611133

> <b_lp_Chiralities_Consistent>
1

> <s_lp_Variant>
Cefsulodin-1

> <s_epik_input>
W05IMl1DKD1PKWMoW2NIXVtjSF0xKVtjSF1bY0hdW24rXTFbQ0gyXUMoW0NIMl1TMik9QyhDKD1PKVtPSF0pTihbQ0BASF0yMylDKD1PKVtDQEBIXTNbTkhdQyg9TylbQ0BIXShTKD1PKSg9TylbT0hdKWM0W2NIXVtjSF1bY0hdW2NIXVtjSF00

> <s_epik_cmdline>
J2VwaWtfcHl0aG9uJywgJy1waHQnLCAnMC4wJywgJy1waCcsICc3LjQnLCAnLW50JywgJy1tYScsICc1MDAnLCAnLWltYWUnLCAnPGluZmlsZS5tYWU+JywgJy1vbWFlJywgJzxvdXRmaWxlLm1hZT4n

> <r_lp_tautomer_probability>
1

> <r_epik_Ionization_Penalty>
  0.0010

> <r_epik_Ionization_Penalty_Charging>
  0.0000

> <r_epik_Ionization_Penalty_Neutral>
  0.0010

> <r_epik_State_Penalty>
  0.0000

> <r_epik_Charging_Adjusted_Penalty>
1.59615623662622e-05

> <i_epik_Tot_Q>
-1

> <i_epik_Tot_abs_Q>
3

> <s_epik_Chemistry_Notes>
This compound contains an acetal/aminal-like group ( X-CH(R)-Y where X, Y are N, S, or O) that may be acid/base labile, releasing an aldehyde.

> <s_m_subgroup_title>
glide-dock_Nicaido_neutral_pv1

> <s_m_subgroupid>
glide-dock_Nicaido_neutral_pv1

> <b_m_subgroup_collapsed>
0

$$$$
Ofloxacin
                    3D
 Schrodinger Suite 2022-2.
 46 49  0  0  1  0            999 V2000
  -22.7078  -19.4806  -16.6836 C   0  0  0  0  0  0
  -23.8927  -20.0827  -17.4615 C   0  0  1  0  0  0
  -24.1769  -19.2762  -18.7349 C   0  0  0  0  0  0
  -25.4231  -19.6836  -19.2779 O   0  0  0  0  0  0
  -25.6704  -21.0385  -19.2523 C   0  0  0  0  0  0
  -24.8497  -21.9852  -18.5758 C   0  0  0  0  0  0
  -23.7369  -21.5020  -17.8189 N   0  0  0  0  0  0
  -22.7497  -22.3669  -17.3314 C   0  0  0  0  0  0
  -22.7872  -23.7202  -17.3684 C   0  0  0  0  0  0
  -24.0159  -24.3238  -17.9574 C   0  0  0  0  0  0
  -25.0021  -23.3872  -18.5639 C   0  0  0  0  0  0
  -26.1546  -23.8571  -19.2248 C   0  0  0  0  0  0
  -27.0195  -22.9884  -19.9159 C   0  0  0  0  0  0
  -28.0706  -23.5254  -20.5858 F   0  0  0  0  0  0
  -26.7818  -21.5940  -19.9459 C   0  0  0  0  0  0
  -27.6673  -20.7923  -20.6919 N   0  0  0  0  0  0
  -28.3699  -19.7464  -19.9545 C   0  0  0  0  0  0
  -29.5391  -19.1878  -20.7894 C   0  0  0  0  0  0
  -29.0795  -18.7496  -22.1223 N   0  3  0  0  0  0
  -28.3561  -19.8174  -22.8545 C   0  0  0  0  0  0
  -27.1941  -20.3829  -22.0081 C   0  0  0  0  0  0
  -30.1269  -18.0690  -22.9104 C   0  0  0  0  0  0
  -24.2151  -25.5376  -18.0135 O   0  0  0  0  0  0
  -21.5697  -24.5768  -16.8131 C   0  0  0  0  0  0
  -21.6741  -25.8249  -16.8130 O   0  5  0  0  0  0
  -20.5736  -23.9450  -16.3976 O   0  0  0  0  0  0
  -22.8929  -18.4299  -16.4494 H   0  0  0  0  0  0
  -22.5566  -19.9934  -15.7325 H   0  0  0  0  0  0
  -21.7816  -19.5349  -17.2593 H   0  0  0  0  0  0
  -24.7687  -20.0045  -16.8139 H   0  0  0  0  0  0
  -24.2369  -18.2101  -18.5129 H   0  0  0  0  0  0
  -23.3841  -19.4109  -19.4721 H   0  0  0  0  0  0
  -21.8817  -21.8647  -16.9320 H   0  0  0  0  0  0
  -26.3735  -24.9141  -19.2138 H   0  0  0  0  0  0
  -28.7422  -20.1436  -19.0076 H   0  0  0  0  0  0
  -27.6853  -18.9347  -19.7104 H   0  0  0  0  0  0
  -29.9880  -18.3488  -20.2587 H   0  0  0  0  0  0
  -30.3153  -19.9482  -20.8788 H   0  0  0  0  0  0
  -27.9659  -19.4195  -23.7915 H   0  0  0  0  0  0
  -29.0543  -20.6150  -23.1119 H   0  0  0  0  0  0
  -26.4166  -19.6262  -21.8872 H   0  0  0  0  0  0
  -26.7351  -21.2305  -22.5203 H   0  0  0  0  0  0
  -31.0049  -18.7020  -23.0474 H   0  0  0  0  0  0
  -30.4251  -17.1534  -22.3978 H   0  0  0  0  0  0
  -29.7497  -17.7784  -23.8914 H   0  0  0  0  0  0
  -28.3774  -18.0339  -21.9552 H   0  0  0  0  0  0
  1  2  1  0  0  0
  1 27  1  0  0  0
  1 28  1  0  0  0
  1 29  1  0  0  0
  2  7  1  0  0  0
  2  3  1  0  0  0
  2 30  1  0  0  0
  3  4  1  0  0  0
  3 31  1  0  0  0
  3 32  1  0  0  0
  4  5  1  0  0  0
  5 15  1  0  0  0
  5  6  2  0  0  0
  6 11  1  0  0  0
  6  7  1  0  0  0
  7  8  1  0  0  0
  8  9  2  0  0  0
  8 33  1  0  0  0
  9 10  1  0  0  0
  9 24  1  0  0  0
 10 11  1  0  0  0
 10 23  2  0  0  0
 11 12  2  0  0  0
 12 13  1  0  0  0
 12 34  1  0  0  0
 13 14  1  0  0  0
 13 15  2  0  0  0
 15 16  1  0  0  0
 16 21  1  0  0  0
 16 17  1  0  0  0
 17 18  1  0  0  0
 17 35  1  0  0  0
 17 36  1  0  0  0
 18 19  1  0  0  0
 18 37  1  0  0  0
 18 38  1  0  0  0
 19 20  1  0  0  0
 19 22  1  0  0  0
 19 46  1  0  0  0
 20 21  1  0  0  0
 20 39  1  0  0  0
 20 40  1  0  0  0
 21 41  1  0  0  0
 21 42  1  0  0  0
 22 43  1  0  0  0
 22 44  1  0  0  0
 22 45  1  0  0  0
 24 25  1  0  0  0
 24 26  2  0  0  0
M  CHG  2  19   1  25  -1
M  END
> <s_m_entry_id>
27312

> <s_m_entry_name>
data_maestro.32

> <s_m_Source_Path>
C:\Users\olshana1\Git\GramNeg-Accumulation\Gram Negative Permeation - OmpF

> <s_m_Source_File>
data_maestro.csv

> <i_m_Source_File_Index>
32

> <s_m_job_name>
glide-dock_Nicaido_neutral

> <s_i_glide_gridfile>
3POX-grid

> <i_i_glide_lignum>
41

> <i_i_glide_rotatable_bonds>
2

> <r_i_docking_score>
-5.57079921045327

> <r_i_glide_ligand_efficiency>
-0.214261508094356

> <r_i_glide_ligand_efficiency_sa>
-0.634748874651207

> <r_i_glide_ligand_efficiency_ln>
-1.30828391529181

> <r_i_glide_gscore>
-5.57079921045327

> <r_i_glide_lipo>
0

> <r_i_glide_hbond>
-0.468210686988811

> <r_i_glide_metal>
0

> <r_i_glide_rewards>
-1.17022157045454

> <r_i_glide_evdw>
-23.6025276184082

> <r_i_glide_ecoul>
-17.3255481719971

> <r_i_glide_erotb>
0.146950134654495

> <r_i_glide_esite>
-0.300358480944436

> <r_i_glide_emodel>
-66.9076718894078

> <r_i_glide_energy>
-40.9280757904053

> <r_i_glide_einternal>
1.23067557811737

> <i_i_glide_confnum>
2

> <i_i_glide_posenum>
279

> <r_i_glide_eff_state_penalty>
0

> <r_glide_res:A132_vdw>
-1.93770380530434

> <r_glide_res:A132_coul>
-4.87744090156671

> <r_glide_res:A132_hbond>
0

> <r_glide_res:A132_dist>
1.92579318058482

> <r_glide_res:A132_Eint>
-6.81514470687105

> <r_glide_res:A117_vdw>
-1.16554826659593

> <r_glide_res:A117_coul>
-22.3031660865966

> <r_glide_res:A117_hbond>
0

> <r_glide_res:A117_dist>
1.80386530144047

> <r_glide_res:A117_Eint>
-23.4687143531925

> <r_glide_res:A113_vdw>
3.44897248429661

> <r_glide_res:A113_coul>
-19.9330717885452

> <r_glide_res:A113_hbond>
0

> <r_glide_res:A113_dist>
2.18933595869447

> <r_glide_res:A113_Eint>
-16.4840993042486

> <r_glide_res:A82_vdw>
-0.43047475141476

> <r_glide_res:A82_coul>
2.12147421816402

> <r_glide_res:A82_hbond>
0

> <r_glide_res:A82_dist>
3.62656668649419

> <r_glide_res:A82_Eint>
1.69099946674926

> <r_glide_res:A42_vdw>
-0.206998210839122

> <r_glide_res:A42_coul>
7.0497229920119

> <r_glide_res:A42_hbond>
0

> <r_glide_res:A42_dist>
4.04485247438237

> <r_glide_res:A42_Eint>
6.84272478117278

> <r_glide_res:A16_vdw>
-0.0697448865204991

> <r_glide_res:A16_coul>
11.2246985585537

> <r_glide_res:A16_hbond>
0

> <r_glide_res:A16_dist>
5.18729713645203

> <r_glide_res:A16_Eint>
11.1549536720332

> <s_m_source_file>
ligprep_Nicaido_neutral.maegz

> <i_m_source_file_index>
32

> <i_lp_mmshare_version>
58128

> <i_f3d_flags>
0

> <s_lp_Force_Field>
S-OPLS

> <r_lp_Energy>
60.370079

> <b_lp_Chiralities_Consistent>
1

> <s_lp_Variant>
Ofloxacin-1

> <s_epik_input>
TzFbQ0gyXVtDQEhdKFtDSDNdKW4oYzJjMTMpW2NIXWMoQyg9TylbT0hdKWMoPU8pYzJbY0hdYyhGKWMzTjRbQ0gyXVtDSDJdTihbQ0gzXSlbQ0gyXVtDSDJdNA==

> <s_epik_cmdline>
J2VwaWtfcHl0aG9uJywgJy1waHQnLCAnMC4wJywgJy1waCcsICc3LjQnLCAnLW50JywgJy1tYScsICc1MDAnLCAnLWltYWUnLCAnPGluZmlsZS5tYWU+JywgJy1vbWFlJywgJzxvdXRmaWxlLm1hZT4n

> <r_lp_tautomer_probability>
1

> <r_epik_Ionization_Penalty>
  0.1907

> <r_epik_Ionization_Penalty_Charging>
  0.1907

> <r_epik_Ionization_Penalty_Neutral>
  0.0000

> <r_epik_State_Penalty>
  0.0000

> <r_epik_Charging_Adjusted_Penalty>
0.190712686691679

> <i_epik_Tot_Q>
0

> <i_epik_Tot_abs_Q>
2

> <s_m_subgroup_title>
glide-dock_Nicaido_neutral_pv1

> <s_m_subgroupid>
glide-dock_Nicaido_neutral_pv1

> <b_m_subgroup_collapsed>
0

$$$$
Cefuroxime
                    3D
 Schrodinger Suite 2022-2.
 44 46  0  0  1  0            999 V2000
  -34.1622  -20.4690  -29.3015 C   0  0  0  0  0  0
  -33.1895  -19.9472  -28.4132 O   0  0  0  0  0  0
  -33.6696  -18.7128  -27.9548 N   0  0  0  0  0  0
  -33.0960  -18.2419  -26.9138 C   0  0  0  0  0  0
  -33.5788  -16.9535  -26.4207 C   0  0  0  0  0  0
  -33.9685  -15.7926  -27.0335 C   0  0  0  0  0  0
  -34.4801  -14.9468  -26.0133 C   0  0  0  0  0  0
  -34.3699  -15.6508  -24.8480 C   0  0  0  0  0  0
  -33.8305  -16.8764  -25.0795 O   0  0  0  0  0  0
  -31.9485  -18.8915  -26.1230 C   0  0  0  0  0  0
  -31.2476  -18.0393  -25.3428 N   0  0  0  0  0  0
  -30.0948  -18.3204  -24.4675 C   0  0  1  0  0  0
  -30.3557  -19.3762  -23.3781 C   0  0  1  0  0  0
  -29.1090  -19.9973  -23.7989 N   0  0  0  0  0  0
  -29.0448  -19.3210  -25.0018 C   0  0  0  0  0  0
  -28.4050  -19.4874  -26.0133 O   0  0  0  0  0  0
  -28.5819  -21.1105  -23.1199 C   0  0  0  0  0  0
  -28.2579  -22.4232  -23.9664 C   0  0  0  0  0  0
  -27.9681  -23.4782  -23.3505 O   0  5  0  0  0  0
  -28.3687  -22.3496  -25.2131 O   0  0  0  0  0  0
  -28.3369  -20.9304  -21.7952 C   0  0  0  0  0  0
  -28.6825  -19.6106  -21.1020 C   0  0  0  0  0  0
  -30.2881  -18.9186  -21.6136 S   0  0  0  0  0  0
  -27.5494  -21.8800  -20.9047 C   0  0  0  0  0  0
  -28.3732  -22.4343  -19.8982 O   0  0  0  0  0  0
  -27.9640  -23.4909  -19.2004 C   0  0  0  0  0  0
  -28.7689  -23.6001  -18.0961 N   0  0  0  0  0  0
  -27.0259  -24.2350  -19.4960 O   0  0  0  0  0  0
  -31.6910  -20.0937  -26.2137 O   0  0  0  0  0  0
  -33.8270  -21.4202  -29.7126 H   0  0  0  0  0  0
  -35.1097  -20.6484  -28.7906 H   0  0  0  0  0  0
  -34.3464  -19.7878  -30.1340 H   0  0  0  0  0  0
  -33.9105  -15.5875  -28.0924 H   0  0  0  0  0  0
  -34.8835  -13.9496  -26.1163 H   0  0  0  0  0  0
  -34.6134  -15.4425  -23.8144 H   0  0  0  0  0  0
  -31.5410  -17.0717  -25.3478 H   0  0  0  0  0  0
  -29.6642  -17.4166  -24.0386 H   0  0  0  0  0  0
  -31.2017  -20.0374  -23.5745 H   0  0  0  0  0  0
  -28.7212  -19.7434  -20.0194 H   0  0  0  0  0  0
  -27.8943  -18.8852  -21.3048 H   0  0  0  0  0  0
  -27.0329  -22.6532  -21.4643 H   0  0  0  0  0  0
  -26.7592  -21.3048  -20.4217 H   0  0  0  0  0  0
  -29.5335  -22.9271  -18.0133 H   0  0  0  0  0  0
  -28.5534  -24.2946  -17.3984 H   0  0  0  0  0  0
  1  2  1  0  0  0
  1 30  1  0  0  0
  1 31  1  0  0  0
  1 32  1  0  0  0
  2  3  1  0  0  0
  3  4  2  3  0  0
  4  5  1  0  0  0
  4 10  1  0  0  0
  5  9  1  0  0  0
  5  6  2  0  0  0
  6  7  1  0  0  0
  6 33  1  0  0  0
  7  8  2  0  0  0
  7 34  1  0  0  0
  8  9  1  0  0  0
  8 35  1  0  0  0
 10 11  1  0  0  0
 10 29  2  0  0  0
 11 12  1  0  0  0
 11 36  1  0  0  0
 12 15  1  0  0  0
 12 13  1  0  0  0
 12 37  1  0  0  0
 13 23  1  0  0  0
 13 14  1  0  0  0
 13 38  1  0  0  0
 14 15  1  0  0  0
 14 17  1  0  0  0
 15 16  2  0  0  0
 17 18  1  0  0  0
 17 21  2  0  0  0
 18 19  1  0  0  0
 18 20  2  0  0  0
 21 22  1  0  0  0
 21 24  1  0  0  0
 22 23  1  0  0  0
 22 39  1  0  0  0
 22 40  1  0  0  0
 24 25  1  0  0  0
 24 41  1  0  0  0
 24 42  1  0  0  0
 25 26  1  0  0  0
 26 27  1  0  0  0
 26 28  2  0  0  0
 27 43  1  0  0  0
 27 44  1  0  0  0
M  CHG  1  19  -1
M  END
> <s_m_entry_id>
27313

> <s_m_entry_name>
data_maestro.10

> <s_m_Source_Path>
C:\Users\olshana1\Git\GramNeg-Accumulation\Gram Negative Permeation - OmpF

> <s_m_Source_File>
data_maestro.csv

> <i_m_Source_File_Index>
10

> <s_m_job_name>
glide-dock_Nicaido_neutral

> <s_i_glide_gridfile>
3POX-grid

> <i_i_glide_lignum>
14

> <i_i_glide_rotatable_bonds>
9

> <r_i_docking_score>
-5.56156709995853

> <r_i_glide_ligand_efficiency>
-0.191778175860639

> <r_i_glide_ligand_efficiency_sa>
-0.589203315834639

> <r_i_glide_ligand_efficiency_ln>
-1.27345783671718

> <r_i_glide_gscore>
-5.56156709995853

> <r_i_glide_lipo>
-0.380290149180228

> <r_i_glide_hbond>
-0.86263955701946

> <r_i_glide_metal>
0

> <r_i_glide_rewards>
-0.489254629984086

> <r_i_glide_evdw>
-30.4457759857178

> <r_i_glide_ecoul>
-15.4641733169556

> <r_i_glide_erotb>
0.663396273735242

> <r_i_glide_esite>
-0.650864240680771

> <r_i_glide_emodel>
-71.2481820858549

> <r_i_glide_energy>
-45.9099493026733

> <r_i_glide_einternal>
7.64687156677246

> <i_i_glide_confnum>
105

> <i_i_glide_posenum>
306

> <r_i_glide_eff_state_penalty>
0

> <r_glide_res:A132_vdw>
-1.3216729661777

> <r_glide_res:A132_coul>
-36.3291238357361

> <r_glide_res:A132_hbond>
-0.17451581715046

> <r_glide_res:A132_dist>
2.14406247214278

> <r_glide_res:A132_Eint>
-37.8253126190642

> <r_glide_res:A117_vdw>
-5.0343959049116

> <r_glide_res:A117_coul>
25.7288851023129

> <r_glide_res:A117_hbond>
0

> <r_glide_res:A117_dist>
2.09321100645994

> <r_glide_res:A117_Eint>
20.6944891974013

> <r_glide_res:A113_vdw>
-2.59797736358991

> <r_glide_res:A113_coul>
19.3003938929942

> <r_glide_res:A113_hbond>
-0.16

> <r_glide_res:A113_dist>
1.95282877350868

> <r_glide_res:A113_Eint>
16.5424165294043

> <r_glide_res:A82_vdw>
-0.6507641883407

> <r_glide_res:A82_coul>
-46.6490406465266

> <r_glide_res:A82_hbond>
-0.174366705190569

> <r_glide_res:A82_dist>
1.96772805600658

> <r_glide_res:A82_Eint>
-47.4741715400579

> <r_glide_res:A42_vdw>
0.223579224540909

> <r_glide_res:A42_coul>
-53.4960111316116

> <r_glide_res:A42_hbond>
-0.348952377561623

> <r_glide_res:A42_dist>
1.90581997792609

> <r_glide_res:A42_Eint>
-53.6213842846323

> <r_glide_res:A16_vdw>
-0.897110364390979

> <r_glide_res:A16_coul>
-45.9249026251031

> <r_glide_res:A16_hbond>
0

> <r_glide_res:A16_dist>
1.86714937446712

> <r_glide_res:A16_Eint>
-46.8220129894941

> <s_m_source_file>
ligprep_Nicaido_neutral.maegz

> <i_m_source_file_index>
10

> <i_lp_mmshare_version>
58128

> <i_f3d_flags>
0

> <s_lp_Force_Field>
S-OPLS

> <r_lp_Energy>
45.356438

> <b_lp_Chiralities_Consistent>
1

> <s_lp_Variant>
Cefuroxime-2

> <s_epik_input>
bzFbY0hdW2NIXVtjSF1jMS9DKD1OXE9bQ0gzXSlDKD1PKVtOSF1bQ0BASF0yQyg9TylOKFtDQEhdMjMpQyhDKD1PKVtPSF0pPUMoW0NIMl1TMylbQ0gyXU9DKD1PKVtOSDJd

> <s_epik_cmdline>
J2VwaWtfcHl0aG9uJywgJy1waHQnLCAnMC4wJywgJy1waCcsICc3LjQnLCAnLW50JywgJy1tYScsICc1MDAnLCAnLWltYWUnLCAnPGluZmlsZS5tYWU+JywgJy1vbWFlJywgJzxvdXRmaWxlLm1hZT4n

> <r_lp_tautomer_probability>
1

> <r_epik_Ionization_Penalty>
  0.0000

> <r_epik_Ionization_Penalty_Charging>
  0.0000

> <r_epik_Ionization_Penalty_Neutral>
  0.0000

> <r_epik_State_Penalty>
  0.0000

> <r_epik_Charging_Adjusted_Penalty>
8.57368987839538e-06

> <i_epik_Tot_Q>
-1

> <i_epik_Tot_abs_Q>
1

> <s_epik_Chemistry_Notes>
This compound has an ester and may undergo hydrolysis at high or low pH. This compound has an imine and may undergo hydrolysis. This compound contains an acetal/aminal-like group ( X-CH(R)-Y where X, Y are N, S, or O) that may be acid/base labile, releasing an aldehyde.

> <s_m_subgroup_title>
glide-dock_Nicaido_neutral_pv1

> <s_m_subgroupid>
glide-dock_Nicaido_neutral_pv1

> <b_m_subgroup_collapsed>
0

$$$$
Cephaloglycin
                    3D
 Schrodinger Suite 2022-2.
 46 48  0  0  1  0            999 V2000
  -33.9993  -18.4789  -22.4135 C   0  0  0  0  0  0
  -33.0567  -19.1367  -23.4103 C   0  0  0  0  0  0
  -32.0051  -19.7120  -22.8148 O   0  0  0  0  0  0
  -30.9836  -20.3034  -23.6027 C   0  0  0  0  0  0
  -29.7189  -20.5516  -22.7887 C   0  0  0  0  0  0
  -28.9762  -21.6835  -22.9011 C   0  0  0  0  0  0
  -27.8353  -21.9082  -22.1162 N   0  0  0  0  0  0
  -27.6221  -21.2708  -20.8309 C   0  0  1  0  0  0
  -26.2366  -21.9406  -20.8423 C   0  0  2  0  0  0
  -26.8566  -22.8577  -21.9241 C   0  0  0  0  0  0
  -26.6563  -23.9496  -22.4133 O   0  0  0  0  0  0
  -25.9421  -22.5923  -19.5716 N   0  0  0  0  0  0
  -25.0731  -23.5995  -19.4166 C   0  0  0  0  0  0
  -24.9867  -24.2090  -18.0134 C   0  0  2  0  0  0
  -23.5394  -24.1770  -17.6417 C   0  0  0  0  0  0
  -22.6102  -25.1495  -18.0854 C   0  0  0  0  0  0
  -21.2554  -25.1025  -17.7035 C   0  0  0  0  0  0
  -20.7979  -24.0711  -16.8647 C   0  0  0  0  0  0
  -21.7003  -23.0924  -16.4135 C   0  0  0  0  0  0
  -23.0524  -23.1496  -16.8004 C   0  0  0  0  0  0
  -25.5689  -25.5496  -18.0134 N   0  0  0  0  0  0
  -24.4390  -24.0898  -20.3538 O   0  0  0  0  0  0
  -27.7584  -19.4914  -21.0422 S   0  0  0  0  0  0
  -29.4004  -19.4212  -21.8042 C   0  0  0  0  0  0
  -29.3685  -22.8850  -23.8240 C   0  0  0  0  0  0
  -29.2901  -22.7239  -25.0672 O   0  5  0  0  0  0
  -29.6202  -23.9496  -23.2134 O   0  0  0  0  0  0
  -33.2784  -19.1122  -24.6218 O   0  0  0  0  0  0
  -34.9891  -18.3482  -22.8499 H   0  0  0  0  0  0
  -34.0935  -19.0903  -21.5154 H   0  0  0  0  0  0
  -33.6134  -17.5008  -22.1259 H   0  0  0  0  0  0
  -30.7185  -19.6274  -24.4172 H   0  0  0  0  0  0
  -31.3649  -21.2192  -24.0533 H   0  0  0  0  0  0
  -28.3174  -21.6469  -20.0749 H   0  0  0  0  0  0
  -25.4451  -21.2769  -21.1951 H   0  0  0  0  0  0
  -26.4394  -22.2514  -18.7600 H   0  0  0  0  0  0
  -25.5682  -23.5918  -17.3245 H   0  0  0  0  0  0
  -22.9450  -25.9383  -18.7432 H   0  0  0  0  0  0
  -20.5663  -25.8494  -18.0666 H   0  0  0  0  0  0
  -19.7579  -24.0185  -16.5787 H   0  0  0  0  0  0
  -21.3586  -22.2926  -15.7722 H   0  0  0  0  0  0
  -23.7286  -22.3879  -16.4382 H   0  0  0  0  0  0
  -26.1337  -25.6331  -17.1678 H   0  0  0  0  0  0
  -26.2263  -25.6445  -18.7726 H   0  0  0  0  0  0
  -29.4979  -18.4560  -22.3026 H   0  0  0  0  0  0
  -30.1373  -19.4414  -21.0006 H   0  0  0  0  0  0
  1  2  1  0  0  0
  1 29  1  0  0  0
  1 30  1  0  0  0
  1 31  1  0  0  0
  2  3  1  0  0  0
  2 28  2  0  0  0
  3  4  1  0  0  0
  4  5  1  0  0  0
  4 32  1  0  0  0
  4 33  1  0  0  0
  5 24  1  0  0  0
  5  6  2  0  0  0
  6  7  1  0  0  0
  6 25  1  0  0  0
  7 10  1  0  0  0
  7  8  1  0  0  0
  8  9  1  0  0  0
  8 23  1  0  0  0
  8 34  1  0  0  0
  9 10  1  0  0  0
  9 12  1  0  0  0
  9 35  1  0  0  0
 10 11  2  0  0  0
 12 13  1  0  0  0
 12 36  1  0  0  0
 13 14  1  0  0  0
 13 22  2  0  0  0
 14 15  1  0  0  0
 14 21  1  0  0  0
 14 37  1  0  0  0
 15 20  1  0  0  0
 15 16  2  0  0  0
 16 17  1  0  0  0
 16 38  1  0  0  0
 17 18  2  0  0  0
 17 39  1  0  0  0
 18 19  1  0  0  0
 18 40  1  0  0  0
 19 20  2  0  0  0
 19 41  1  0  0  0
 20 42  1  0  0  0
 21 43  1  0  0  0
 21 44  1  0  0  0
 23 24  1  0  0  0
 24 45  1  0  0  0
 24 46  1  0  0  0
 25 26  1  0  0  0
 25 27  2  0  0  0
M  CHG  1  26  -1
M  END
> <s_m_entry_id>
27314

> <s_m_entry_name>
data_maestro.16

> <s_m_Source_Path>
C:\Users\olshana1\Git\GramNeg-Accumulation\Gram Negative Permeation - OmpF

> <s_m_Source_File>
data_maestro.csv

> <i_m_Source_File_Index>
16

> <s_m_job_name>
glide-dock_Nicaido_neutral

> <s_i_glide_gridfile>
3POX-grid

> <i_i_glide_lignum>
21

> <i_i_glide_rotatable_bonds>
8

> <r_i_docking_score>
-5.55613320383231

> <r_i_glide_ligand_efficiency>
-0.198433328708297

> <r_i_glide_ligand_efficiency_sa>
-0.602560456938908

> <r_i_glide_ligand_efficiency_ln>
-1.28251867860403

> <r_i_glide_gscore>
-5.66753320383231

> <r_i_glide_lipo>
-0.0920657989866411

> <r_i_glide_hbond>
-1.21278920327988

> <r_i_glide_metal>
0

> <r_i_glide_rewards>
-0.651629958336877

> <r_i_glide_evdw>
-25.7427539825439

> <r_i_glide_ecoul>
-17.519079208374

> <r_i_glide_erotb>
0.600502745111863

> <r_i_glide_esite>
-0.396551407957472

> <r_i_glide_emodel>
-72.9876831886202

> <r_i_glide_energy>
-43.261833190918

> <r_i_glide_einternal>
2.43315505981445

> <i_i_glide_confnum>
24

> <i_i_glide_posenum>
26

> <r_i_glide_eff_state_penalty>
0.1114

> <r_glide_res:A132_vdw>
-3.01306000487575

> <r_glide_res:A132_coul>
-33.9910322437921

> <r_glide_res:A132_hbond>
-0.0771272678873558

> <r_glide_res:A132_dist>
2.15633494432911

> <r_glide_res:A132_Eint>
-37.0812195165552

> <r_glide_res:A117_vdw>
-1.6076541183944

> <r_glide_res:A117_coul>
23.0290568146313

> <r_glide_res:A117_hbond>
0

> <r_glide_res:A117_dist>
2.82217661914416

> <r_glide_res:A117_Eint>
21.4214026962369

> <r_glide_res:A113_vdw>
-3.16258540135775

> <r_glide_res:A113_coul>
18.2356451129657

> <r_glide_res:A113_hbond>
0

> <r_glide_res:A113_dist>
2.49909274662116

> <r_glide_res:A113_Eint>
15.0730597116079

> <r_glide_res:A82_vdw>
1.46772240074408

> <r_glide_res:A82_coul>
-53.0167347939131

> <r_glide_res:A82_hbond>
-0.343642607604359

> <r_glide_res:A82_dist>
1.75745511018652

> <r_glide_res:A82_Eint>
-51.8926550007734

> <r_glide_res:A42_vdw>
-0.396198509412035

> <r_glide_res:A42_coul>
-46.4910694996324

> <r_glide_res:A42_hbond>
-0.2

> <r_glide_res:A42_dist>
1.81580235934609

> <r_glide_res:A42_Eint>
-47.0872680090444

> <r_glide_res:A16_vdw>
-0.44512777922087

> <r_glide_res:A16_coul>
-30.8583105998376

> <r_glide_res:A16_hbond>
0

> <r_glide_res:A16_dist>
3.5728058893825

> <r_glide_res:A16_Eint>
-31.3034383790584

> <s_m_source_file>
ligprep_Nicaido_neutral.maegz

> <i_m_source_file_index>
16

> <i_lp_mmshare_version>
58128

> <i_f3d_flags>
0

> <s_lp_Force_Field>
S-OPLS

> <r_lp_Energy>
48.658328

> <b_lp_Chiralities_Consistent>
1

> <s_lp_Variant>
Cephaloglycin-1

> <s_epik_input>
W0NIM11DKD1PKU9bQ0gyXUMoPUMxQyg9TylbT0hdKVtDSDJdU1tDQEBIXShOMTIpW0NASF0oQzI9TylbTkhdQyg9TylbQ0BASF0oW05IMl0pYzNbY0hdW2NIXVtjSF1bY0hdW2NIXTM=

> <s_epik_cmdline>
J2VwaWtfcHl0aG9uJywgJy1waHQnLCAnMC4wJywgJy1waCcsICc3LjQnLCAnLW50JywgJy1tYScsICc1MDAnLCAnLWltYWUnLCAnPGluZmlsZS5tYWU+JywgJy1vbWFlJywgJzxvdXRmaWxlLm1hZT4n

> <r_epik_Ionization_Penalty>
  0.1114

> <r_epik_Ionization_Penalty_Charging>
  0.0000

> <r_epik_Ionization_Penalty_Neutral>
  0.1114

> <r_epik_State_Penalty>
  0.1114

> <r_epik_Charging_Adjusted_Penalty>
0.111378695294398

> <i_epik_Tot_Q>
-1

> <i_epik_Tot_abs_Q>
1

> <s_epik_Chemistry_Notes>
This compound has an ester and may undergo hydrolysis at high or low pH. This compound contains an acetal/aminal-like group ( X-CH(R)-Y where X, Y are N, S, or O) that may be acid/base labile, releasing an aldehyde.

> <s_m_subgroup_title>
glide-dock_Nicaido_neutral_pv1

> <s_m_subgroupid>
glide-dock_Nicaido_neutral_pv1

> <b_m_subgroup_collapsed>
0

$$$$
Cefoperazone
                    3D
 Schrodinger Suite 2022-2.
 70 74  0  0  1  0            999 V2000
  -37.9673  -23.6281  -18.0861 C   0  0  0  0  0  0
  -36.4453  -23.5295  -18.2600 C   0  0  0  0  0  0
  -36.0777  -23.2052  -19.6351 N   0  0  0  0  0  0
  -35.8773  -21.7866  -19.9168 C   0  0  0  0  0  0
  -36.2647  -21.4767  -21.3681 C   0  0  0  0  0  0
  -35.5329  -22.3496  -22.3111 N   0  0  0  0  0  0
  -35.3363  -23.6690  -21.9677 C   0  0  0  0  0  0
  -35.8529  -24.1531  -20.5719 C   0  0  0  0  0  0
  -36.0092  -25.3600  -20.3719 O   0  0  0  0  0  0
  -34.7982  -24.5245  -22.6844 O   0  0  0  0  0  0
  -35.1308  -21.7658  -23.4817 C   0  0  0  0  0  0
  -34.1183  -22.3626  -24.1348 N   0  0  0  0  0  0
  -33.5954  -21.9981  -25.4506 C   0  0  2  0  0  0
  -33.2686  -23.2582  -26.2059 C   0  0  0  0  0  0
  -33.4631  -23.3228  -27.6086 C   0  0  0  0  0  0
  -33.1536  -24.4827  -28.3469 C   0  0  0  0  0  0
  -32.6529  -25.6256  -27.6955 C   0  0  0  0  0  0
  -32.4572  -25.5931  -26.3049 C   0  0  0  0  0  0
  -32.7508  -24.4224  -25.5775 C   0  0  0  0  0  0
  -32.3603  -26.7497  -28.4135 O   0  0  0  0  0  0
  -32.2461  -21.2534  -25.3742 C   0  0  0  0  0  0
  -31.6833  -21.0617  -24.1694 N   0  0  0  0  0  0
  -30.3341  -20.5365  -23.9800 C   0  0  1  0  0  0
  -29.8339  -20.6736  -22.5291 C   0  0  1  0  0  0
  -28.6992  -21.3946  -23.0679 N   0  0  0  0  0  0
  -29.2542  -21.5909  -24.3127 C   0  0  0  0  0  0
  -28.9867  -22.3507  -25.2185 O   0  0  0  0  0  0
  -27.6899  -21.9094  -22.2421 C   0  0  0  0  0  0
  -26.9403  -23.1491  -22.8236 C   0  0  0  0  0  0
  -26.1165  -22.9427  -23.7430 O   0  5  0  0  0  0
  -27.3258  -24.2698  -22.4119 O   0  0  0  0  0  0
  -27.3915  -21.3693  -21.0311 C   0  0  0  0  0  0
  -28.1434  -20.1775  -20.4304 C   0  0  0  0  0  0
  -29.1789  -19.2585  -21.6112 S   0  0  0  0  0  0
  -26.3075  -21.9268  -20.1155 C   0  0  0  0  0  0
  -26.9845  -22.9636  -18.7894 S   0  0  0  0  0  0
  -25.4597  -23.6608  -18.2626 C   0  0  0  0  0  0
  -24.9090  -24.7493  -18.7874 N   0  0  0  0  0  0
  -23.7236  -24.8872  -18.0931 N   0  0  0  0  0  0
  -23.5785  -23.9413  -17.2129 N   0  0  0  0  0  0
  -24.6790  -23.1536  -17.2970 N   0  0  0  0  0  0
  -24.8371  -22.0077  -16.4232 C   0  0  0  0  0  0
  -31.7082  -20.8637  -26.4118 O   0  0  0  0  0  0
  -35.6137  -20.7154  -23.9059 O   0  0  0  0  0  0
  -38.2203  -23.8401  -17.0476 H   0  0  0  0  0  0
  -38.3884  -24.4200  -18.7083 H   0  0  0  0  0  0
  -38.4563  -22.6927  -18.3592 H   0  0  0  0  0  0
  -36.0442  -22.7530  -17.6134 H   0  0  0  0  0  0
  -35.9703  -24.4561  -17.9381 H   0  0  0  0  0  0
  -36.4578  -21.1584  -19.2366 H   0  0  0  0  0  0
  -34.8263  -21.5530  -19.7419 H   0  0  0  0  0  0
  -37.3384  -21.6143  -21.5073 H   0  0  0  0  0  0
  -36.0695  -20.4149  -21.5345 H   0  0  0  0  0  0
  -33.8026  -23.2422  -23.7485 H   0  0  0  0  0  0
  -34.3127  -21.3871  -26.0023 H   0  0  0  0  0  0
  -33.8597  -22.4638  -28.1310 H   0  0  0  0  0  0
  -33.3179  -24.5007  -29.4146 H   0  0  0  0  0  0
  -32.0799  -26.4655  -25.7907 H   0  0  0  0  0  0
  -32.5687  -24.4301  -24.5120 H   0  0  0  0  0  0
  -32.3690  -27.5657  -27.9077 H   0  0  0  0  0  0
  -32.1966  -21.3478  -23.3476 H   0  0  0  0  0  0
  -30.1674  -19.5432  -24.3981 H   0  0  0  0  0  0
  -30.4502  -21.3132  -21.8935 H   0  0  0  0  0  0
  -28.7685  -20.5458  -19.6156 H   0  0  0  0  0  0
  -27.4368  -19.4718  -19.9960 H   0  0  0  0  0  0
  -25.5685  -22.4991  -20.6721 H   0  0  0  0  0  0
  -25.7541  -21.0968  -19.6748 H   0  0  0  0  0  0
  -25.5698  -21.3159  -16.8339 H   0  0  0  0  0  0
  -25.1710  -22.3436  -15.4408 H   0  0  0  0  0  0
  -23.8865  -21.4835  -16.3133 H   0  0  0  0  0  0
  1  2  1  0  0  0
  1 45  1  0  0  0
  1 46  1  0  0  0
  1 47  1  0  0  0
  2  3  1  0  0  0
  2 48  1  0  0  0
  2 49  1  0  0  0
  3  8  1  0  0  0
  3  4  1  0  0  0
  4  5  1  0  0  0
  4 50  1  0  0  0
  4 51  1  0  0  0
  5  6  1  0  0  0
  5 52  1  0  0  0
  5 53  1  0  0  0
  6  7  1  0  0  0
  6 11  1  0  0  0
  7  8  1  0  0  0
  7 10  2  0  0  0
  8  9  2  0  0  0
 11 12  1  0  0  0
 11 44  2  0  0  0
 12 13  1  0  0  0
 12 54  1  0  0  0
 13 14  1  0  0  0
 13 21  1  0  0  0
 13 55  1  0  0  0
 14 19  1  0  0  0
 14 15  2  0  0  0
 15 16  1  0  0  0
 15 56  1  0  0  0
 16 17  2  0  0  0
 16 57  1  0  0  0
 17 18  1  0  0  0
 17 20  1  0  0  0
 18 19  2  0  0  0
 18 58  1  0  0  0
 19 59  1  0  0  0
 20 60  1  0  0  0
 21 22  1  0  0  0
 21 43  2  0  0  0
 22 23  1  0  0  0
 22 61  1  0  0  0
 23 26  1  0  0  0
 23 24  1  0  0  0
 23 62  1  0  0  0
 24 34  1  0  0  0
 24 25  1  0  0  0
 24 63  1  0  0  0
 25 26  1  0  0  0
 25 28  1  0  0  0
 26 27  2  0  0  0
 28 29  1  0  0  0
 28 32  2  0  0  0
 29 30  1  0  0  0
 29 31  2  0  0  0
 32 33  1  0  0  0
 32 35  1  0  0  0
 33 34  1  0  0  0
 33 64  1  0  0  0
 33 65  1  0  0  0
 35 36  1  0  0  0
 35 66  1  0  0  0
 35 67  1  0  0  0
 36 37  1  0  0  0
 37 41  1  0  0  0
 37 38  2  0  0  0
 38 39  1  0  0  0
 39 40  2  0  0  0
 40 41  1  0  0  0
 41 42  1  0  0  0
 42 68  1  0  0  0
 42 69  1  0  0  0
 42 70  1  0  0  0
M  CHG  1  30  -1
M  END
> <s_m_entry_id>
27315

> <s_m_entry_name>
data_maestro.8

> <s_m_Source_Path>
C:\Users\olshana1\Git\GramNeg-Accumulation\Gram Negative Permeation - OmpF

> <s_m_Source_File>
data_maestro.csv

> <i_m_Source_File_Index>
8

> <s_m_job_name>
glide-dock_Nicaido_neutral

> <s_i_glide_gridfile>
3POX-grid

> <i_i_glide_lignum>
11

> <i_i_glide_rotatable_bonds>
13

> <r_i_docking_score>
-5.53789349136412

> <r_i_glide_ligand_efficiency>
-0.125861215712821

> <r_i_glide_ligand_efficiency_sa>
-0.44433393281339

> <r_i_glide_ligand_efficiency_ln>
-1.15754054816355

> <r_i_glide_gscore>
-5.53789349136412

> <r_i_glide_lipo>
-0.102181539684936

> <r_i_glide_hbond>
-0.556940322531037

> <r_i_glide_metal>
0

> <r_i_glide_rewards>
0.00358501768722687

> <r_i_glide_evdw>
-40.5440254211426

> <r_i_glide_ecoul>
-16.9547004699707

> <r_i_glide_erotb>
0.362700252817045

> <r_i_glide_esite>
-0.674650558099682

> <r_i_glide_emodel>
-89.0708535200869

> <r_i_glide_energy>
-57.4987258911133

> <r_i_glide_einternal>
5.22089529037476

> <i_i_glide_confnum>
283

> <i_i_glide_posenum>
81

> <r_i_glide_eff_state_penalty>
0

> <r_glide_res:A132_vdw>
-2.3074137054291

> <r_glide_res:A132_coul>
-40.235608331976

> <r_glide_res:A132_hbond>
0

> <r_glide_res:A132_dist>
2.50027506763897

> <r_glide_res:A132_Eint>
-42.5430220374051

> <r_glide_res:A117_vdw>
-1.75917920626652

> <r_glide_res:A117_coul>
24.9507145682888

> <r_glide_res:A117_hbond>
0

> <r_glide_res:A117_dist>
3.29540040841732

> <r_glide_res:A117_Eint>
23.1915353620223

> <r_glide_res:A113_vdw>
-4.25291703354139

> <r_glide_res:A113_coul>
13.7634165691669

> <r_glide_res:A113_hbond>
0

> <r_glide_res:A113_dist>
2.34923694511248

> <r_glide_res:A113_Eint>
9.51049953562552

> <r_glide_res:A82_vdw>
1.92398098423072

> <r_glide_res:A82_coul>
-49.6046527534668

> <r_glide_res:A82_hbond>
-0.19433637727009

> <r_glide_res:A82_dist>
1.58867275454018

> <r_glide_res:A82_Eint>
-47.8750081465061

> <r_glide_res:A42_vdw>
-2.56451045998932

> <r_glide_res:A42_coul>
-48.0193081747061

> <r_glide_res:A42_hbond>
-0.182245123757936

> <r_glide_res:A42_dist>
1.92220602797615

> <r_glide_res:A42_Eint>
-50.7660637584533

> <r_glide_res:A16_vdw>
-0.992121433349663

> <r_glide_res:A16_coul>
-35.2425990015749

> <r_glide_res:A16_hbond>
-0.0203588215030106

> <r_glide_res:A16_dist>
2.23791016343144

> <r_glide_res:A16_Eint>
-36.2550792564276

> <s_m_source_file>
ligprep_Nicaido_neutral.maegz

> <i_m_source_file_index>
8

> <i_lp_mmshare_version>
58128

> <i_f3d_flags>
0

> <s_lp_Force_Field>
S-OPLS

> <r_lp_Energy>
85.319288

> <b_lp_Chiralities_Consistent>
1

> <s_lp_Variant>
Cefoperazone-1

> <s_epik_input>
W0NIM11bQ0gyXU4xW0NIMl1bQ0gyXU4oQyg9TylDMT1PKUMoPU8pW05IXVtDQEhdKGMyW2NIXVtjSF1jKFtPSF0pW2NIXVtjSF0yKUMoPU8pW05IXVtDQEBIXTNDKD1PKU4oW0NASF0zNClDKEMoPU8pW09IXSk9QyhbQ0gyXVM0KVtDSDJdU2M1bm5ubjVbQ0gzXQ==

> <s_epik_cmdline>
J2VwaWtfcHl0aG9uJywgJy1waHQnLCAnMC4wJywgJy1waCcsICc3LjQnLCAnLW50JywgJy1tYScsICc1MDAnLCAnLWltYWUnLCAnPGluZmlsZS5tYWU+JywgJy1vbWFlJywgJzxvdXRmaWxlLm1hZT4n

> <r_lp_tautomer_probability>
1

> <r_epik_Ionization_Penalty>
  0.0158

> <r_epik_Ionization_Penalty_Charging>
  0.0000

> <r_epik_Ionization_Penalty_Neutral>
  0.0158

> <r_epik_State_Penalty>
  0.0000

> <r_epik_Charging_Adjusted_Penalty>
8.23416745038905e-06

> <i_epik_Tot_Q>
-1

> <i_epik_Tot_abs_Q>
1

> <s_epik_Chemistry_Notes>
This compound contains an acetal/aminal-like group ( X-CH(R)-Y where X, Y are N, S, or O) that may be acid/base labile, releasing an aldehyde.

> <s_m_subgroup_title>
glide-dock_Nicaido_neutral_pv1

> <s_m_subgroupid>
glide-dock_Nicaido_neutral_pv1

> <b_m_subgroup_collapsed>
0

$$$$
Cefaclor
                    3D
 Schrodinger Suite 2022-2.
 37 39  0  0  1  0            999 V2000
  -27.2521  -21.0297  -25.6134 O   0  0  0  0  0  0
  -27.9878  -20.3128  -24.9682 C   0  0  0  0  0  0
  -28.3236  -18.8056  -24.8331 C   0  0  2  0  0  0
  -29.4654  -19.2568  -23.8875 C   0  0  1  0  0  0
  -28.9159  -20.5954  -23.9870 N   0  0  0  0  0  0
  -29.5228  -21.6887  -23.3605 C   0  0  0  0  0  0
  -29.2766  -23.0683  -23.9969 C   0  0  0  0  0  0
  -28.7817  -23.9496  -23.2512 O   0  5  0  0  0  0
  -29.5689  -23.1496  -25.2134 O   0  0  0  0  0  0
  -30.3449  -21.5275  -22.3070 C   0  0  0  0  0  0
  -30.6189  -20.2142  -21.6134 C   0  0  0  0  0  0
  -29.5689  -18.8300  -22.1326 S   0  0  0  0  0  0
  -31.1941  -22.8221  -21.5288 Cl  0  0  0  0  0  0
  -28.7948  -18.1307  -26.0538 N   0  0  0  0  0  0
  -29.8333  -18.4844  -26.8353 C   0  0  0  0  0  0
  -30.2187  -17.5305  -27.9739 C   0  0  2  0  0  0
  -31.7212  -17.5197  -28.0473 C   0  0  0  0  0  0
  -32.4778  -16.8418  -27.0608 C   0  0  0  0  0  0
  -33.8841  -16.7894  -27.1084 C   0  0  0  0  0  0
  -34.5757  -17.4197  -28.1573 C   0  0  0  0  0  0
  -33.8527  -18.0977  -29.1535 C   0  0  0  0  0  0
  -32.4473  -18.1429  -29.0954 C   0  0  0  0  0  0
  -29.5689  -17.9496  -29.2134 N   0  0  0  0  0  0
  -30.4362  -19.5496  -26.7072 O   0  0  0  0  0  0
  -27.5368  -18.2508  -24.3293 H   0  0  0  0  0  0
  -30.4698  -19.2213  -24.3074 H   0  0  0  0  0  0
  -31.6737  -19.9498  -21.6856 H   0  0  0  0  0  0
  -30.3689  -20.4148  -20.5825 H   0  0  0  0  0  0
  -28.2701  -17.2932  -26.2985 H   0  0  0  0  0  0
  -29.8649  -16.5322  -27.7126 H   0  0  0  0  0  0
  -31.9689  -16.3496  -26.2447 H   0  0  0  0  0  0
  -34.4281  -16.2647  -26.3365 H   0  0  0  0  0  0
  -35.6540  -17.3843  -28.1976 H   0  0  0  0  0  0
  -34.3717  -18.5824  -29.9671 H   0  0  0  0  0  0
  -31.9275  -18.6593  -29.8874 H   0  0  0  0  0  0
  -29.0343  -17.1713  -29.5841 H   0  0  0  0  0  0
  -28.8732  -18.6580  -29.0269 H   0  0  0  0  0  0
  1  2  2  0  0  0
  2  5  1  0  0  0
  2  3  1  0  0  0
  3  4  1  0  0  0
  3 14  1  0  0  0
  3 25  1  0  0  0
  4 12  1  0  0  0
  4  5  1  0  0  0
  4 26  1  0  0  0
  5  6  1  0  0  0
  6  7  1  0  0  0
  6 10  2  0  0  0
  7  8  1  0  0  0
  7  9  2  0  0  0
 10 11  1  0  0  0
 10 13  1  0  0  0
 11 12  1  0  0  0
 11 27  1  0  0  0
 11 28  1  0  0  0
 14 15  1  0  0  0
 14 29  1  0  0  0
 15 16  1  0  0  0
 15 24  2  0  0  0
 16 17  1  0  0  0
 16 23  1  0  0  0
 16 30  1  0  0  0
 17 22  1  0  0  0
 17 18  2  0  0  0
 18 19  1  0  0  0
 18 31  1  0  0  0
 19 20  2  0  0  0
 19 32  1  0  0  0
 20 21  1  0  0  0
 20 33  1  0  0  0
 21 22  2  0  0  0
 21 34  1  0  0  0
 22 35  1  0  0  0
 23 36  1  0  0  0
 23 37  1  0  0  0
M  CHG  1   8  -1
M  END
> <s_m_entry_id>
27316

> <s_m_entry_name>
data_maestro.15

> <s_m_Source_Path>
C:\Users\olshana1\Git\GramNeg-Accumulation\Gram Negative Permeation - OmpF

> <s_m_Source_File>
data_maestro.csv

> <i_m_Source_File_Index>
15

> <s_m_job_name>
glide-dock_Nicaido_neutral

> <s_i_glide_gridfile>
3POX-grid

> <i_i_glide_lignum>
20

> <i_i_glide_rotatable_bonds>
5

> <r_i_docking_score>
-5.53103405613626

> <r_i_glide_ligand_efficiency>
-0.230459752339011

> <r_i_glide_ligand_efficiency_sa>
-0.664760956863964

> <r_i_glide_ligand_efficiency_ln>
-1.32383025224824

> <r_i_glide_gscore>
-5.64743405613626

> <r_i_glide_lipo>
-0.139063321543017

> <r_i_glide_hbond>
-1.21183735730467

> <r_i_glide_metal>
0

> <r_i_glide_rewards>
-0.904529242953962

> <r_i_glide_evdw>
-22.8130683898926

> <r_i_glide_ecoul>
-14.9929180145264

> <r_i_glide_erotb>
0.429266414571003

> <r_i_glide_esite>
-0.431679427232026

> <r_i_glide_emodel>
-61.0299533914685

> <r_i_glide_energy>
-37.8059864044189

> <r_i_glide_einternal>
6.33228063583374

> <i_i_glide_confnum>
5

> <i_i_glide_posenum>
194

> <r_i_glide_eff_state_penalty>
0.1164

> <r_glide_res:A132_vdw>
-0.705017452547504

> <r_glide_res:A132_coul>
-31.0838832489908

> <r_glide_res:A132_hbond>
0

> <r_glide_res:A132_dist>
3.30769478111673

> <r_glide_res:A132_Eint>
-31.7889007015383

> <r_glide_res:A117_vdw>
-4.32259841177978

> <r_glide_res:A117_coul>
9.67703715724653

> <r_glide_res:A117_hbond>
-0.148908064432011

> <r_glide_res:A117_dist>
2.03071604053053

> <r_glide_res:A117_Eint>
5.20553068103474

> <r_glide_res:A113_vdw>
-0.493314659575472

> <r_glide_res:A113_coul>
23.8602669172914

> <r_glide_res:A113_hbond>
0

> <r_glide_res:A113_dist>
2.06486956473153

> <r_glide_res:A113_Eint>
23.3669522577159

> <r_glide_res:A82_vdw>
1.65518757954888

> <r_glide_res:A82_coul>
-49.9314857722574

> <r_glide_res:A82_hbond>
-0.270683957088113

> <r_glide_res:A82_dist>
1.88151953960625

> <r_glide_res:A82_Eint>
-48.5469821497966

> <r_glide_res:A42_vdw>
3.59839811939746

> <r_glide_res:A42_coul>
-55.2744811823458

> <r_glide_res:A42_hbond>
-0.324492873653324

> <r_glide_res:A42_dist>
1.56022395063927

> <r_glide_res:A42_Eint>
-52.0005759366016

> <r_glide_res:A16_vdw>
-0.67958720484559

> <r_glide_res:A16_coul>
-43.1063223045048

> <r_glide_res:A16_hbond>
-0.085216493402387

> <r_glide_res:A16_dist>
2.06808492084912

> <r_glide_res:A16_Eint>
-43.8711260027528

> <s_m_source_file>
ligprep_Nicaido_neutral.maegz

> <i_m_source_file_index>
15

> <i_lp_mmshare_version>
58128

> <i_f3d_flags>
0

> <s_lp_Force_Field>
S-OPLS

> <r_lp_Energy>
48.098991

> <b_lp_Chiralities_Consistent>
1

> <s_lp_Variant>
Cefaclor-1

> <s_epik_input>
UzFbQ0gyXUMoQ2wpPUMoQyg9TylbT0hdKU4oW0NAQEhdMTIpQyg9TylbQ0BIXTJbTkhdQyg9TylbQ0BASF0oW05IMl0pYzNbY0hdW2NIXVtjSF1bY0hdW2NIXTM=

> <s_epik_cmdline>
J2VwaWtfcHl0aG9uJywgJy1waHQnLCAnMC4wJywgJy1waCcsICc3LjQnLCAnLW50JywgJy1tYScsICc1MDAnLCAnLWltYWUnLCAnPGluZmlsZS5tYWU+JywgJy1vbWFlJywgJzxvdXRmaWxlLm1hZT4n

> <r_epik_Ionization_Penalty>
  0.1164

> <r_epik_Ionization_Penalty_Charging>
  0.0000

> <r_epik_Ionization_Penalty_Neutral>
  0.1164

> <r_epik_State_Penalty>
  0.1164

> <r_epik_Charging_Adjusted_Penalty>
0.116403072965043

> <i_epik_Tot_Q>
-1

> <i_epik_Tot_abs_Q>
1

> <s_epik_Chemistry_Notes>
This compound contains an acetal/aminal-like group ( X-CH(R)-Y where X, Y are N, S, or O) that may be acid/base labile, releasing an aldehyde.

> <s_m_subgroup_title>
glide-dock_Nicaido_neutral_pv1

> <s_m_subgroupid>
glide-dock_Nicaido_neutral_pv1

> <b_m_subgroup_collapsed>
0

$$$$
Cefaclor
                    3D
 Schrodinger Suite 2022-2.
 37 39  0  0  1  0            999 V2000
  -28.6767  -23.4025  -22.7563 O   0  0  0  0  0  0
  -29.0428  -22.3200  -22.3399 C   0  0  0  0  0  0
  -29.4246  -21.6801  -20.9749 C   0  0  2  0  0  0
  -29.4126  -20.3372  -21.7402 C   0  0  1  0  0  0
  -29.3270  -21.1156  -22.9637 N   0  0  0  0  0  0
  -29.3749  -20.5289  -24.2433 C   0  0  0  0  0  0
  -28.8281  -21.4035  -25.4113 C   0  0  0  0  0  0
  -29.5689  -21.5496  -26.4134 O   0  5  0  0  0  0
  -27.7179  -21.9496  -25.2134 O   0  0  0  0  0  0
  -29.8151  -19.2599  -24.4316 C   0  0  0  0  0  0
  -30.3500  -18.3387  -23.3449 C   0  0  0  0  0  0
  -30.8747  -19.2503  -21.8719 S   0  0  0  0  0  0
  -29.8485  -18.4635  -25.9696 Cl  0  0  0  0  0  0
  -28.3836  -21.7213  -19.9410 N   0  0  0  0  0  0
  -27.7556  -22.8188  -19.4846 C   0  0  0  0  0  0
  -26.7273  -22.6450  -18.3449 C   0  0  2  0  0  0
  -25.7369  -21.6332  -18.8260 C   0  0  0  0  0  0
  -24.8190  -21.9057  -19.8705 C   0  0  0  0  0  0
  -23.9047  -20.9324  -20.3188 C   0  0  0  0  0  0
  -23.8833  -19.6595  -19.7217 C   0  0  0  0  0  0
  -24.7748  -19.3699  -18.6744 C   0  0  0  0  0  0
  -25.6859  -20.3496  -18.2357 C   0  0  0  0  0  0
  -26.0957  -23.9234  -18.0134 N   0  0  0  0  0  0
  -27.9689  -23.9496  -19.9351 O   0  0  0  0  0  0
  -30.4174  -21.9396  -20.6044 H   0  0  0  0  0  0
  -28.5016  -19.7518  -21.5912 H   0  0  0  0  0  0
  -29.5689  -17.6336  -23.0621 H   0  0  0  0  0  0
  -31.1910  -17.7532  -23.7174 H   0  0  0  0  0  0
  -28.1820  -20.8412  -19.4856 H   0  0  0  0  0  0
  -27.2609  -22.2865  -17.4625 H   0  0  0  0  0  0
  -24.8238  -22.8769  -20.3417 H   0  0  0  0  0  0
  -23.2222  -21.1600  -21.1240 H   0  0  0  0  0  0
  -23.1885  -18.9074  -20.0659 H   0  0  0  0  0  0
  -24.7718  -18.3941  -18.2099 H   0  0  0  0  0  0
  -26.3681  -20.1001  -17.4348 H   0  0  0  0  0  0
  -26.2525  -24.1521  -17.0316 H   0  0  0  0  0  0
  -26.5829  -24.6503  -18.5159 H   0  0  0  0  0  0
  1  2  2  0  0  0
  2  5  1  0  0  0
  2  3  1  0  0  0
  3  4  1  0  0  0
  3 14  1  0  0  0
  3 25  1  0  0  0
  4 12  1  0  0  0
  4  5  1  0  0  0
  4 26  1  0  0  0
  5  6  1  0  0  0
  6  7  1  0  0  0
  6 10  2  0  0  0
  7  8  1  0  0  0
  7  9  2  0  0  0
 10 11  1  0  0  0
 10 13  1  0  0  0
 11 12  1  0  0  0
 11 27  1  0  0  0
 11 28  1  0  0  0
 14 15  1  0  0  0
 14 29  1  0  0  0
 15 16  1  0  0  0
 15 24  2  0  0  0
 16 17  1  0  0  0
 16 23  1  0  0  0
 16 30  1  0  0  0
 17 22  1  0  0  0
 17 18  2  0  0  0
 18 19  1  0  0  0
 18 31  1  0  0  0
 19 20  2  0  0  0
 19 32  1  0  0  0
 20 21  1  0  0  0
 20 33  1  0  0  0
 21 22  2  0  0  0
 21 34  1  0  0  0
 22 35  1  0  0  0
 23 36  1  0  0  0
 23 37  1  0  0  0
M  CHG  1   8  -1
M  END
> <s_m_entry_id>
27317

> <s_m_entry_name>
data_maestro.15

> <s_m_Source_Path>
C:\Users\olshana1\Git\GramNeg-Accumulation\Gram Negative Permeation - OmpF

> <s_m_Source_File>
data_maestro.csv

> <i_m_Source_File_Index>
15

> <s_m_job_name>
glide-dock_Nicaido_neutral

> <s_i_glide_gridfile>
3POX-grid

> <i_i_glide_lignum>
20

> <i_i_glide_rotatable_bonds>
5

> <r_i_docking_score>
-5.5225964538087

> <r_i_glide_ligand_efficiency>
-0.230108185575363

> <r_i_glide_ligand_efficiency_sa>
-0.663746862837427

> <r_i_glide_ligand_efficiency_ln>
-1.32181074683492

> <r_i_glide_gscore>
-5.6389964538087

> <r_i_glide_lipo>
0

> <r_i_glide_hbond>
-0.963146502599123

> <r_i_glide_metal>
0

> <r_i_glide_rewards>
-0.908166642933065

> <r_i_glide_evdw>
-24.6475944519043

> <r_i_glide_ecoul>
-16.8907337188721

> <r_i_glide_erotb>
0.429266414571003

> <r_i_glide_esite>
-0.430959942421489

> <r_i_glide_emodel>
-66.6477270598717

> <r_i_glide_energy>
-41.5383281707764

> <r_i_glide_einternal>
2.50331401824951

> <i_i_glide_confnum>
4

> <i_i_glide_posenum>
218

> <r_i_glide_eff_state_penalty>
0.1164

> <r_glide_res:A132_vdw>
-1.15509931864445

> <r_glide_res:A132_coul>
-31.9059825065213

> <r_glide_res:A132_hbond>
-0.16

> <r_glide_res:A132_dist>
1.85554058757951

> <r_glide_res:A132_Eint>
-33.2210818251657

> <r_glide_res:A117_vdw>
-3.34528527108732

> <r_glide_res:A117_coul>
26.337726351422

> <r_glide_res:A117_hbond>
0

> <r_glide_res:A117_dist>
2.5181635460804

> <r_glide_res:A117_Eint>
22.9924410803347

> <r_glide_res:A113_vdw>
-3.79455075843577

> <r_glide_res:A113_coul>
14.4860047214258

> <r_glide_res:A113_hbond>
0

> <r_glide_res:A113_dist>
2.59449131949659

> <r_glide_res:A113_Eint>
10.69145396299

> <r_glide_res:A82_vdw>
-1.61290722079911

> <r_glide_res:A82_coul>
-38.5537076526269

> <r_glide_res:A82_hbond>
0

> <r_glide_res:A82_dist>
2.53183231752441

> <r_glide_res:A82_Eint>
-40.166614873426

> <r_glide_res:A42_vdw>
1.52695495827387

> <r_glide_res:A42_coul>
-54.5399264454256

> <r_glide_res:A42_hbond>
-0.283146502599124

> <r_glide_res:A42_dist>
1.66156551654467

> <r_glide_res:A42_Eint>
-53.2961179897508

> <r_glide_res:A16_vdw>
-0.45357604774731

> <r_glide_res:A16_coul>
-47.5102308146693

> <r_glide_res:A16_hbond>
-0.2

> <r_glide_res:A16_dist>
1.89366143611145

> <r_glide_res:A16_Eint>
-48.1638068624166

> <s_m_source_file>
ligprep_Nicaido_neutral.maegz

> <i_m_source_file_index>
15

> <i_lp_mmshare_version>
58128

> <i_f3d_flags>
0

> <s_lp_Force_Field>
S-OPLS

> <r_lp_Energy>
48.098991

> <b_lp_Chiralities_Consistent>
1

> <s_lp_Variant>
Cefaclor-1

> <s_epik_input>
UzFbQ0gyXUMoQ2wpPUMoQyg9TylbT0hdKU4oW0NAQEhdMTIpQyg9TylbQ0BIXTJbTkhdQyg9TylbQ0BASF0oW05IMl0pYzNbY0hdW2NIXVtjSF1bY0hdW2NIXTM=

> <s_epik_cmdline>
J2VwaWtfcHl0aG9uJywgJy1waHQnLCAnMC4wJywgJy1waCcsICc3LjQnLCAnLW50JywgJy1tYScsICc1MDAnLCAnLWltYWUnLCAnPGluZmlsZS5tYWU+JywgJy1vbWFlJywgJzxvdXRmaWxlLm1hZT4n

> <r_epik_Ionization_Penalty>
  0.1164

> <r_epik_Ionization_Penalty_Charging>
  0.0000

> <r_epik_Ionization_Penalty_Neutral>
  0.1164

> <r_epik_State_Penalty>
  0.1164

> <r_epik_Charging_Adjusted_Penalty>
0.116403072965043

> <i_epik_Tot_Q>
-1

> <i_epik_Tot_abs_Q>
1

> <s_epik_Chemistry_Notes>
This compound contains an acetal/aminal-like group ( X-CH(R)-Y where X, Y are N, S, or O) that may be acid/base labile, releasing an aldehyde.

> <s_m_subgroup_title>
glide-dock_Nicaido_neutral_pv1

> <s_m_subgroupid>
glide-dock_Nicaido_neutral_pv1

> <b_m_subgroup_collapsed>
0

$$$$
Cefuroxime
                    3D
 Schrodinger Suite 2022-2.
 44 46  0  0  1  0            999 V2000
  -34.5768  -27.3834  -26.4225 C   0  0  0  0  0  0
  -34.6322  -26.3314  -27.3695 O   0  0  0  0  0  0
  -34.2617  -25.1439  -26.7206 N   0  0  0  0  0  0
  -33.9691  -24.2082  -27.5374 C   0  0  0  0  0  0
  -33.9553  -24.3474  -28.9976 C   0  0  0  0  0  0
  -34.6030  -23.7421  -30.0429 C   0  0  0  0  0  0
  -34.1023  -24.3357  -31.2354 C   0  0  0  0  0  0
  -33.1709  -25.2497  -30.8367 C   0  0  0  0  0  0
  -33.0639  -25.2654  -29.4803 O   0  0  0  0  0  0
  -33.5018  -22.8442  -27.0663 C   0  0  0  0  0  0
  -33.3579  -22.7403  -25.7288 N   0  0  0  0  0  0
  -32.4871  -21.7388  -25.1031 C   0  0  1  0  0  0
  -32.0604  -22.0759  -23.6541 C   0  0  1  0  0  0
  -30.6932  -21.8864  -24.1164 N   0  0  0  0  0  0
  -31.0101  -22.0295  -25.4399 C   0  0  0  0  0  0
  -30.3689  -22.3485  -26.4141 O   0  0  0  0  0  0
  -29.6288  -22.0862  -23.2314 C   0  0  0  0  0  0
  -28.4551  -22.9978  -23.6870 C   0  0  0  0  0  0
  -28.1575  -23.9486  -22.9237 O   0  5  0  0  0  0
  -27.9690  -22.7495  -24.8132 O   0  0  0  0  0  0
  -29.6097  -21.3706  -22.0899 C   0  0  0  0  0  0
  -30.7115  -20.3475  -21.8378 C   0  0  0  0  0  0
  -32.3869  -20.9668  -22.2266 S   0  0  0  0  0  0
  -28.4296  -21.3476  -21.1212 C   0  0  0  0  0  0
  -28.7702  -21.9598  -19.8916 O   0  0  0  0  0  0
  -28.1670  -23.0604  -19.4268 C   0  0  0  0  0  0
  -28.7690  -23.3768  -18.2354 N   0  0  0  0  0  0
  -27.2498  -23.6876  -19.9606 O   0  0  0  0  0  0
  -33.1753  -21.9495  -27.8516 O   0  0  0  0  0  0
  -34.8339  -28.3247  -26.9081 H   0  0  0  0  0  0
  -33.5733  -27.4936  -26.0080 H   0  0  0  0  0  0
  -35.2800  -27.2208  -25.6045 H   0  0  0  0  0  0
  -35.3493  -22.9644  -29.9617 H   0  0  0  0  0  0
  -34.3846  -24.1179  -32.2558 H   0  0  0  0  0  0
  -32.5262  -25.9397  -31.3609 H   0  0  0  0  0  0
  -33.6671  -23.5158  -25.1594 H   0  0  0  0  0  0
  -32.8077  -20.7038  -25.2344 H   0  0  0  0  0  0
  -32.2352  -23.1191  -23.3778 H   0  0  0  0  0  0
  -30.6914  -20.0055  -20.8137 H   0  0  0  0  0  0
  -30.5070  -19.4701  -22.4521 H   0  0  0  0  0  0
  -27.5415  -21.8044  -21.5565 H   0  0  0  0  0  0
  -28.1642  -20.3079  -20.9278 H   0  0  0  0  0  0
  -29.6212  -22.8446  -18.0125 H   0  0  0  0  0  0
  -28.4136  -24.1393  -17.6814 H   0  0  0  0  0  0
  1  2  1  0  0  0
  1 30  1  0  0  0
  1 31  1  0  0  0
  1 32  1  0  0  0
  2  3  1  0  0  0
  3  4  2  3  0  0
  4  5  1  0  0  0
  4 10  1  0  0  0
  5  9  1  0  0  0
  5  6  2  0  0  0
  6  7  1  0  0  0
  6 33  1  0  0  0
  7  8  2  0  0  0
  7 34  1  0  0  0
  8  9  1  0  0  0
  8 35  1  0  0  0
 10 11  1  0  0  0
 10 29  2  0  0  0
 11 12  1  0  0  0
 11 36  1  0  0  0
 12 15  1  0  0  0
 12 13  1  0  0  0
 12 37  1  0  0  0
 13 23  1  0  0  0
 13 14  1  0  0  0
 13 38  1  0  0  0
 14 15  1  0  0  0
 14 17  1  0  0  0
 15 16  2  0  0  0
 17 18  1  0  0  0
 17 21  2  0  0  0
 18 19  1  0  0  0
 18 20  2  0  0  0
 21 22  1  0  0  0
 21 24  1  0  0  0
 22 23  1  0  0  0
 22 39  1  0  0  0
 22 40  1  0  0  0
 24 25  1  0  0  0
 24 41  1  0  0  0
 24 42  1  0  0  0
 25 26  1  0  0  0
 26 27  1  0  0  0
 26 28  2  0  0  0
 27 43  1  0  0  0
 27 44  1  0  0  0
M  CHG  1  19  -1
M  END
> <s_m_entry_id>
27318

> <s_m_entry_name>
data_maestro.10

> <s_m_Source_Path>
C:\Users\olshana1\Git\GramNeg-Accumulation\Gram Negative Permeation - OmpF

> <s_m_Source_File>
data_maestro.csv

> <i_m_Source_File_Index>
10

> <s_m_job_name>
glide-dock_Nicaido_neutral

> <s_i_glide_gridfile>
3POX-grid

> <i_i_glide_lignum>
13

> <i_i_glide_rotatable_bonds>
9

> <r_i_docking_score>
-5.51729677349829

> <r_i_glide_ligand_efficiency>
-0.190251612879251

> <r_i_glide_ligand_efficiency_sa>
-0.584513230706718

> <r_i_glide_ligand_efficiency_ln>
-1.2633210545564

> <r_i_glide_gscore>
-5.51729677349829

> <r_i_glide_lipo>
-0.305140101398079

> <r_i_glide_hbond>
-1.1690530062433

> <r_i_glide_metal>
0

> <r_i_glide_rewards>
-0.470889601617373

> <r_i_glide_evdw>
-22.9394664764404

> <r_i_glide_ecoul>
-17.1791133880615

> <r_i_glide_erotb>
0.663396273735242

> <r_i_glide_esite>
-0.511770005943532

> <r_i_glide_emodel>
-68.7326974789091

> <r_i_glide_energy>
-40.118579864502

> <r_i_glide_einternal>
2.98625016212463

> <i_i_glide_confnum>
83

> <i_i_glide_posenum>
276

> <r_i_glide_eff_state_penalty>
0

> <r_glide_res:A132_vdw>
-1.99651059552269

> <r_glide_res:A132_coul>
-37.3821253416446

> <r_glide_res:A132_hbond>
-0.0796755226336894

> <r_glide_res:A132_dist>
2.30081119341578

> <r_glide_res:A132_Eint>
-39.458311459801

> <r_glide_res:A117_vdw>
-0.722876637098259

> <r_glide_res:A117_coul>
23.80271054769

> <r_glide_res:A117_hbond>
0

> <r_glide_res:A117_dist>
4.016987295606

> <r_glide_res:A117_Eint>
23.0798339105918

> <r_glide_res:A113_vdw>
-2.26666675698698

> <r_glide_res:A113_coul>
16.6690366083202

> <r_glide_res:A113_hbond>
-0.16

> <r_glide_res:A113_dist>
1.8370204879128

> <r_glide_res:A113_Eint>
14.2423698513332

> <r_glide_res:A82_vdw>
0.362955954608007

> <r_glide_res:A82_coul>
-49.0778456027524

> <r_glide_res:A82_hbond>
-0.276836853888732

> <r_glide_res:A82_dist>
1.7833182183366

> <r_glide_res:A82_Eint>
-48.9917265020332

> <r_glide_res:A42_vdw>
1.42882714533005

> <r_glide_res:A42_coul>
-53.6622388220188

> <r_glide_res:A42_hbond>
-0.377644740063367

> <r_glide_res:A42_dist>
1.76610857436762

> <r_glide_res:A42_Eint>
-52.6110564167521

> <r_glide_res:A16_vdw>
-3.22396435783568

> <r_glide_res:A16_coul>
-41.3360274064285

> <r_glide_res:A16_hbond>
-0.274895889657511

> <r_glide_res:A16_dist>
1.91296478712667

> <r_glide_res:A16_Eint>
-44.8348876539217

> <s_m_source_file>
ligprep_Nicaido_neutral.maegz

> <i_m_source_file_index>
10

> <i_lp_mmshare_version>
58128

> <i_f3d_flags>
0

> <s_lp_Force_Field>
S-OPLS

> <r_lp_Energy>
41.721283

> <b_lp_Chiralities_Consistent>
1

> <s_lp_Variant>
Cefuroxime-1

> <s_epik_input>
bzFbY0hdW2NIXVtjSF1jMS9DKD1OXE9bQ0gzXSlDKD1PKVtOSF1bQ0BASF0yQyg9TylOKFtDQEhdMjMpQyhDKD1PKVtPSF0pPUMoW0NIMl1TMylbQ0gyXU9DKD1PKVtOSDJd

> <s_epik_cmdline>
J2VwaWtfcHl0aG9uJywgJy1waHQnLCAnMC4wJywgJy1waCcsICc3LjQnLCAnLW50JywgJy1tYScsICc1MDAnLCAnLWltYWUnLCAnPGluZmlsZS5tYWU+JywgJy1vbWFlJywgJzxvdXRmaWxlLm1hZT4n

> <r_lp_tautomer_probability>
1

> <r_epik_Ionization_Penalty>
  0.0000

> <r_epik_Ionization_Penalty_Charging>
  0.0000

> <r_epik_Ionization_Penalty_Neutral>
  0.0000

> <r_epik_State_Penalty>
  0.0000

> <r_epik_Charging_Adjusted_Penalty>
8.57368987839538e-06

> <i_epik_Tot_Q>
-1

> <i_epik_Tot_abs_Q>
1

> <s_epik_Chemistry_Notes>
This compound has an ester and may undergo hydrolysis at high or low pH. This compound has an imine and may undergo hydrolysis. This compound contains an acetal/aminal-like group ( X-CH(R)-Y where X, Y are N, S, or O) that may be acid/base labile, releasing an aldehyde.

> <s_m_subgroup_title>
glide-dock_Nicaido_neutral_pv1

> <s_m_subgroupid>
glide-dock_Nicaido_neutral_pv1

> <b_m_subgroup_collapsed>
0

$$$$
Cephaloridine
                    3D
 Schrodinger Suite 2022-2.
 45 48  0  0  1  0            999 V2000
  -27.4884  -21.5495  -25.6136 O   0  0  0  0  0  0
  -27.8131  -20.7251  -24.7969 C   0  0  0  0  0  0
  -27.4208  -19.2927  -24.4198 C   0  0  2  0  0  0
  -25.9690  -19.1489  -24.2146 N   0  0  0  0  0  0
  -25.0767  -19.9632  -23.6248 C   0  0  0  0  0  0
  -23.6045  -19.5607  -23.7613 C   0  0  0  0  0  0
  -23.0267  -19.9491  -25.0938 C   0  0  0  0  0  0
  -22.4392  -19.1214  -26.0195 C   0  0  0  0  0  0
  -21.9707  -19.8037  -27.1807 C   0  0  0  0  0  0
  -22.2078  -21.1502  -27.1267 C   0  0  0  0  0  0
  -23.0102  -21.6069  -25.6497 S   0  0  0  0  0  0
  -25.3760  -20.9955  -23.0237 O   0  0  0  0  0  0
  -28.2933  -19.5143  -23.1592 C   0  0  2  0  0  0
  -28.7028  -20.7711  -23.7564 N   0  0  0  0  0  0
  -29.5619  -21.6775  -23.1225 C   0  0  0  0  0  0
  -29.4602  -23.1495  -23.6281 C   0  0  0  0  0  0
  -29.7996  -23.3580  -24.8134 O   0  5  0  0  0  0
  -29.0238  -23.9932  -22.8133 O   0  0  0  0  0  0
  -30.4548  -21.2765  -22.1837 C   0  0  0  0  0  0
  -31.4140  -22.2327  -21.4800 C   0  0  0  0  0  0
  -32.8119  -21.9398  -21.8441 N   0  3  0  0  0  0
  -33.6886  -21.5498  -20.8862 C   0  0  0  0  0  0
  -35.0311  -21.2700  -21.2134 C   0  0  0  0  0  0
  -35.4570  -21.4081  -22.5488 C   0  0  0  0  0  0
  -34.5300  -21.8270  -23.5235 C   0  0  0  0  0  0
  -33.1996  -22.0909  -23.1370 C   0  0  0  0  0  0
  -30.5453  -19.8280  -21.6975 C   0  0  0  0  0  0
  -29.8540  -18.6241  -22.8567 S   0  0  0  0  0  0
  -27.8343  -18.5240  -25.0736 H   0  0  0  0  0  0
  -25.5674  -18.3143  -24.6435 H   0  0  0  0  0  0
  -23.0309  -20.0291  -22.9614 H   0  0  0  0  0  0
  -23.5153  -18.4832  -23.6128 H   0  0  0  0  0  0
  -22.3381  -18.0512  -25.9081 H   0  0  0  0  0  0
  -21.5021  -19.2928  -28.0118 H   0  0  0  0  0  0
  -21.9699  -21.8999  -27.8675 H   0  0  0  0  0  0
  -27.7251  -19.6659  -22.2389 H   0  0  0  0  0  0
  -31.2526  -23.2867  -21.6974 H   0  0  0  0  0  0
  -31.2897  -22.1151  -20.4134 H   0  0  0  0  0  0
  -33.3033  -21.4584  -19.8813 H   0  0  0  0  0  0
  -35.7159  -20.9407  -20.4426 H   0  0  0  0  0  0
  -36.4807  -21.1939  -22.8208 H   0  0  0  0  0  0
  -34.8355  -21.9418  -24.5536 H   0  0  0  0  0  0
  -32.4385  -22.4151  -23.8324 H   0  0  0  0  0  0
  -31.5707  -19.5396  -21.4683 H   0  0  0  0  0  0
  -29.9692  -19.7514  -20.7806 H   0  0  0  0  0  0
  1  2  2  0  0  0
  2 14  1  0  0  0
  2  3  1  0  0  0
  3  4  1  0  0  0
  3 13  1  0  0  0
  3 29  1  0  0  0
  4  5  1  0  0  0
  4 30  1  0  0  0
  5  6  1  0  0  0
  5 12  2  0  0  0
  6  7  1  0  0  0
  6 31  1  0  0  0
  6 32  1  0  0  0
  7 11  1  0  0  0
  7  8  2  0  0  0
  8  9  1  0  0  0
  8 33  1  0  0  0
  9 10  2  0  0  0
  9 34  1  0  0  0
 10 11  1  0  0  0
 10 35  1  0  0  0
 13 28  1  0  0  0
 13 14  1  0  0  0
 13 36  1  0  0  0
 14 15  1  0  0  0
 15 16  1  0  0  0
 15 19  2  0  0  0
 16 17  1  0  0  0
 16 18  2  0  0  0
 19 20  1  0  0  0
 19 27  1  0  0  0
 20 21  1  0  0  0
 20 37  1  0  0  0
 20 38  1  0  0  0
 21 26  1  0  0  0
 21 22  2  0  0  0
 22 23  1  0  0  0
 22 39  1  0  0  0
 23 24  2  0  0  0
 23 40  1  0  0  0
 24 25  1  0  0  0
 24 41  1  0  0  0
 25 26  2  0  0  0
 25 42  1  0  0  0
 26 43  1  0  0  0
 27 28  1  0  0  0
 27 44  1  0  0  0
 27 45  1  0  0  0
M  CHG  2  17  -1  21   1
M  END
> <s_m_entry_id>
27319

> <s_m_entry_name>
data_maestro.13

> <s_m_Source_Path>
C:\Users\olshana1\Git\GramNeg-Accumulation\Gram Negative Permeation - OmpF

> <s_m_Source_File>
data_maestro.csv

> <i_m_Source_File_Index>
13

> <s_m_job_name>
glide-dock_Nicaido_neutral

> <s_i_glide_gridfile>
3POX-grid

> <i_i_glide_lignum>
18

> <i_i_glide_rotatable_bonds>
7

> <r_i_docking_score>
-5.50689929960403

> <r_i_glide_ligand_efficiency>
-0.196674974985858

> <r_i_glide_ligand_efficiency_sa>
-0.597221059422625

> <r_i_glide_ligand_efficiency_ln>
-1.2711540479379

> <r_i_glide_gscore>
-5.50689929960403

> <r_i_glide_lipo>
-0.387422683971831

> <r_i_glide_hbond>
-0.761397997710492

> <r_i_glide_metal>
0

> <r_i_glide_rewards>
-0.617160380083505

> <r_i_glide_evdw>
-25.704683303833

> <r_i_glide_ecoul>
-17.147029876709

> <r_i_glide_erotb>
0.571951339556603

> <r_i_glide_esite>
-0.455580930696808

> <r_i_glide_emodel>
-68.9809335823963

> <r_i_glide_energy>
-42.851713180542

> <r_i_glide_einternal>
5.46562147140503

> <i_i_glide_confnum>
9

> <i_i_glide_posenum>
357

> <r_i_glide_eff_state_penalty>
0

> <r_glide_res:A132_vdw>
-0.893547679213441

> <r_glide_res:A132_coul>
-12.6284839110854

> <r_glide_res:A132_hbond>
0

> <r_glide_res:A132_dist>
2.98260119237702

> <r_glide_res:A132_Eint>
-13.5220315902988

> <r_glide_res:A117_vdw>
-4.61329846726211

> <r_glide_res:A117_coul>
-8.62548438768483

> <r_glide_res:A117_hbond>
-0.16

> <r_glide_res:A117_dist>
1.9013035392598

> <r_glide_res:A117_Eint>
-13.3987828549469

> <r_glide_res:A113_vdw>
-2.96482060356032

> <r_glide_res:A113_coul>
-19.2283675456035

> <r_glide_res:A113_hbond>
0

> <r_glide_res:A113_dist>
2.26992312245224

> <r_glide_res:A113_Eint>
-22.1931881491638

> <r_glide_res:A82_vdw>
-0.299000181635783

> <r_glide_res:A82_coul>
-27.6796380756368

> <r_glide_res:A82_hbond>
-0.241397997710492

> <r_glide_res:A82_dist>
1.88483116721268

> <r_glide_res:A82_Eint>
-28.220036254983

> <r_glide_res:A42_vdw>
1.50113080609104

> <r_glide_res:A42_coul>
-31.8749347582919

> <r_glide_res:A42_hbond>
-0.36

> <r_glide_res:A42_dist>
1.68206767549465

> <r_glide_res:A42_Eint>
-30.7338039522009

> <r_glide_res:A16_vdw>
-0.672333618478419

> <r_glide_res:A16_coul>
-9.01557616636081

> <r_glide_res:A16_hbond>
0

> <r_glide_res:A16_dist>
3.78089882221346

> <r_glide_res:A16_Eint>
-9.68790978483922

> <s_m_source_file>
ligprep_Nicaido_neutral.maegz

> <i_m_source_file_index>
13

> <i_lp_mmshare_version>
58128

> <i_f3d_flags>
0

> <s_lp_Force_Field>
S-OPLS

> <r_lp_Energy>
50.740529

> <b_lp_Chiralities_Consistent>
1

> <s_lp_Variant>
Cephaloridine-1

> <s_epik_input>
czFbY0hdW2NIXVtjSF1jMVtDSDJdQyg9TylbTkhdW0NASF0yQyg9TylOKFtDQEBIXTIzKUMoQyg9TylbT0hdKT1DKFtDSDJdUzMpW0NIMl1bbitdNFtjSF1bY0hdW2NIXVtjSF1bY0hdNA==

> <s_epik_cmdline>
J2VwaWtfcHl0aG9uJywgJy1waHQnLCAnMC4wJywgJy1waCcsICc3LjQnLCAnLW50JywgJy1tYScsICc1MDAnLCAnLWltYWUnLCAnPGluZmlsZS5tYWU+JywgJy1vbWFlJywgJzxvdXRmaWxlLm1hZT4n

> <r_lp_tautomer_probability>
1

> <r_epik_Ionization_Penalty>
  0.0000

> <r_epik_Ionization_Penalty_Charging>
  0.0000

> <r_epik_Ionization_Penalty_Neutral>
  0.0000

> <r_epik_State_Penalty>
  0.0000

> <r_epik_Charging_Adjusted_Penalty>
1.62498989321064e-05

> <i_epik_Tot_Q>
0

> <i_epik_Tot_abs_Q>
2

> <s_epik_Chemistry_Notes>
This compound contains an acetal/aminal-like group ( X-CH(R)-Y where X, Y are N, S, or O) that may be acid/base labile, releasing an aldehyde.

> <s_m_subgroup_title>
glide-dock_Nicaido_neutral_pv1

> <s_m_subgroupid>
glide-dock_Nicaido_neutral_pv1

> <b_m_subgroup_collapsed>
0

$$$$
Cefsulodin
                    3D
 Schrodinger Suite 2022-2.
 55 58  0  0  1  0            999 V2000
  -25.0915  -23.4838  -24.4131 O   0  0  0  0  0  0
  -25.0241  -22.5783  -23.6122 C   0  0  0  0  0  0
  -23.9004  -21.7698  -22.9167 C   0  0  2  0  0  0
  -22.9927  -22.5220  -22.0262 N   0  0  0  0  0  0
  -23.1827  -23.7023  -21.3987 C   0  0  0  0  0  0
  -22.0351  -24.1846  -20.4912 C   0  0  2  0  0  0
  -21.6121  -25.9852  -20.7395 S   0  0  0  0  0  0
  -20.7858  -26.3463  -19.5729 O   0  0  0  0  0  0
  -20.8768  -25.9555  -22.0136 O   0  5  0  0  0  0
  -22.8876  -26.7180  -20.8137 O   0  0  0  0  0  0
  -22.3218  -23.8344  -19.0342 C   0  0  0  0  0  0
  -21.4096  -23.0280  -18.3166 C   0  0  0  0  0  0
  -21.7094  -22.6001  -17.0085 C   0  0  0  0  0  0
  -22.9298  -22.9664  -16.4141 C   0  0  0  0  0  0
  -23.8329  -23.7828  -17.1187 C   0  0  0  0  0  0
  -23.5237  -24.2365  -18.4121 C   0  0  0  0  0  0
  -24.2293  -24.3491  -21.4782 O   0  0  0  0  0  0
  -25.0426  -21.0188  -22.1978 C   0  0  1  0  0  0
  -25.9708  -21.9561  -22.8111 N   0  0  0  0  0  0
  -27.3321  -22.0627  -22.4581 C   0  0  0  0  0  0
  -28.1840  -22.9960  -23.3914 C   0  0  0  0  0  0
  -28.1730  -22.7472  -24.6207 O   0  5  0  0  0  0
  -28.7674  -23.9495  -22.8264 O   0  0  0  0  0  0
  -27.8661  -21.3989  -21.3922 C   0  0  0  0  0  0
  -29.3479  -21.4352  -21.0115 C   0  0  0  0  0  0
  -30.1524  -20.5997  -21.9234 N   0  3  0  0  0  0
  -31.0016  -21.2082  -22.7882 C   0  0  0  0  0  0
  -31.7412  -20.4537  -23.7179 C   0  0  0  0  0  0
  -31.6092  -19.0488  -23.7392 C   0  0  0  0  0  0
  -32.3571  -18.2552  -24.7713 C   0  0  0  0  0  0
  -32.7600  -17.0382  -24.4134 N   0  0  0  0  0  0
  -32.6337  -18.7434  -25.8654 O   0  0  0  0  0  0
  -30.7318  -18.4384  -22.8096 C   0  0  0  0  0  0
  -30.0193  -19.2480  -21.8981 C   0  0  0  0  0  0
  -27.0320  -20.5449  -20.4349 C   0  0  0  0  0  0
  -25.2863  -21.0113  -20.3971 S   0  0  0  0  0  0
  -23.3592  -21.1065  -23.5914 H   0  0  0  0  0  0
  -22.1191  -22.0552  -21.8361 H   0  0  0  0  0  0
  -21.1252  -23.6595  -20.7759 H   0  0  0  0  0  0
  -20.4844  -22.7078  -18.7732 H   0  0  0  0  0  0
  -21.0166  -21.9692  -16.4733 H   0  0  0  0  0  0
  -23.1772  -22.6208  -15.4204 H   0  0  0  0  0  0
  -24.7692  -24.0614  -16.6615 H   0  0  0  0  0  0
  -24.2373  -24.8538  -18.9360 H   0  0  0  0  0  0
  -25.1961  -20.0164  -22.6038 H   0  0  0  0  0  0
  -29.7402  -22.4521  -21.0072 H   0  0  0  0  0  0
  -29.5156  -21.0523  -20.0127 H   0  0  0  0  0  0
  -31.0569  -22.2862  -22.7398 H   0  0  0  0  0  0
  -32.4012  -20.9533  -24.4130 H   0  0  0  0  0  0
  -32.4997  -16.6414  -23.5127 H   0  0  0  0  0  0
  -33.2795  -16.4814  -25.0741 H   0  0  0  0  0  0
  -30.5826  -17.3672  -22.7926 H   0  0  0  0  0  0
  -29.3371  -18.8447  -21.1629 H   0  0  0  0  0  0
  -27.1171  -19.4958  -20.7168 H   0  0  0  0  0  0
  -27.4061  -20.6329  -19.4145 H   0  0  0  0  0  0
  1  2  2  0  0  0
  2 19  1  0  0  0
  2  3  1  0  0  0
  3  4  1  0  0  0
  3 18  1  0  0  0
  3 37  1  0  0  0
  4  5  1  0  0  0
  4 38  1  0  0  0
  5  6  1  0  0  0
  5 17  2  0  0  0
  6  7  1  0  0  0
  6 11  1  0  0  0
  6 39  1  0  0  0
  7  8  2  0  0  0
  7  9  1  0  0  0
  7 10  2  0  0  0
 11 16  1  0  0  0
 11 12  2  0  0  0
 12 13  1  0  0  0
 12 40  1  0  0  0
 13 14  2  0  0  0
 13 41  1  0  0  0
 14 15  1  0  0  0
 14 42  1  0  0  0
 15 16  2  0  0  0
 15 43  1  0  0  0
 16 44  1  0  0  0
 18 36  1  0  0  0
 18 19  1  0  0  0
 18 45  1  0  0  0
 19 20  1  0  0  0
 20 21  1  0  0  0
 20 24  2  0  0  0
 21 22  1  0  0  0
 21 23  2  0  0  0
 24 25  1  0  0  0
 24 35  1  0  0  0
 25 26  1  0  0  0
 25 46  1  0  0  0
 25 47  1  0  0  0
 26 34  1  0  0  0
 26 27  2  0  0  0
 27 28  1  0  0  0
 27 48  1  0  0  0
 28 29  2  0  0  0
 28 49  1  0  0  0
 29 30  1  0  0  0
 29 33  1  0  0  0
 30 31  1  0  0  0
 30 32  2  0  0  0
 31 50  1  0  0  0
 31 51  1  0  0  0
 33 34  2  0  0  0
 33 52  1  0  0  0
 34 53  1  0  0  0
 35 36  1  0  0  0
 35 54  1  0  0  0
 35 55  1  0  0  0
M  CHG  3   9  -1  22  -1  26   1
M  END
> <s_m_entry_id>
27320

> <s_m_entry_name>
data_maestro.27

> <s_m_Source_Path>
C:\Users\olshana1\Git\GramNeg-Accumulation\Gram Negative Permeation - OmpF

> <s_m_Source_File>
data_maestro.csv

> <i_m_Source_File_Index>
27

> <s_m_job_name>
glide-dock_Nicaido_neutral

> <s_i_glide_gridfile>
3POX-grid

> <i_i_glide_lignum>
34

> <i_i_glide_rotatable_bonds>
9

> <r_i_docking_score>
-5.49818945468228

> <r_i_glide_ligand_efficiency>
-0.152727484852285

> <r_i_glide_ligand_efficiency_sa>
-0.504295043286519

> <r_i_glide_ligand_efficiency_ln>
-1.19955639509897

> <r_i_glide_gscore>
-5.49818945468228

> <r_i_glide_lipo>
0

> <r_i_glide_hbond>
-0.915825255540212

> <r_i_glide_metal>
0

> <r_i_glide_rewards>
7.79089669769776e-07

> <r_i_glide_evdw>
-25.6224670410156

> <r_i_glide_ecoul>
-20.7275619506836

> <r_i_glide_erotb>
0.364921022123239

> <r_i_glide_esite>
-0.557028355701652

> <r_i_glide_emodel>
-82.7631017291292

> <r_i_glide_energy>
-46.3500289916992

> <r_i_glide_einternal>
10.2175636291504

> <i_i_glide_confnum>
35

> <i_i_glide_posenum>
362

> <r_i_glide_eff_state_penalty>
0

> <r_glide_res:A132_vdw>
-2.35572158214778

> <r_glide_res:A132_coul>
-50.5704216854169

> <r_glide_res:A132_hbond>
-0.044756114625394

> <r_glide_res:A132_dist>
2.27625848413501

> <r_glide_res:A132_Eint>
-52.97089938219

> <r_glide_res:A117_vdw>
-2.97493517307736

> <r_glide_res:A117_coul>
9.42757121019116

> <r_glide_res:A117_hbond>
0

> <r_glide_res:A117_dist>
3.21312903488615

> <r_glide_res:A117_Eint>
6.45263603711379

> <r_glide_res:A113_vdw>
-2.79118692887223

> <r_glide_res:A113_coul>
-4.68230535057294

> <r_glide_res:A113_hbond>
0

> <r_glide_res:A113_dist>
2.25747822306048

> <r_glide_res:A113_Eint>
-7.47349227944517

> <r_glide_res:A82_vdw>
-1.46706628100689

> <r_glide_res:A82_coul>
-51.376500699431

> <r_glide_res:A82_hbond>
-0.296674116690718

> <r_glide_res:A82_dist>
1.99601967271915

> <r_glide_res:A82_Eint>
-53.1402410971286

> <r_glide_res:A42_vdw>
-0.306416316150599

> <r_glide_res:A42_coul>
-44.8275616077751

> <r_glide_res:A42_hbond>
-0.244872154014972

> <r_glide_res:A42_dist>
2.04262372035734

> <r_glide_res:A42_Eint>
-45.3788500779406

> <r_glide_res:A16_vdw>
-0.531690470972783

> <r_glide_res:A16_coul>
-20.9119452079156

> <r_glide_res:A16_hbond>
0

> <r_glide_res:A16_dist>
3.88426056750689

> <r_glide_res:A16_Eint>
-21.4436356788884

> <s_m_source_file>
ligprep_Nicaido_neutral.maegz

> <i_m_source_file_index>
27

> <i_lp_mmshare_version>
58128

> <i_f3d_flags>
0

> <s_lp_Force_Field>
S-OPLS

> <r_lp_Energy>
54.611133

> <b_lp_Chiralities_Consistent>
1

> <s_lp_Variant>
Cefsulodin-1

> <s_epik_input>
W05IMl1DKD1PKWMoW2NIXVtjSF0xKVtjSF1bY0hdW24rXTFbQ0gyXUMoW0NIMl1TMik9QyhDKD1PKVtPSF0pTihbQ0BASF0yMylDKD1PKVtDQEBIXTNbTkhdQyg9TylbQ0BIXShTKD1PKSg9TylbT0hdKWM0W2NIXVtjSF1bY0hdW2NIXVtjSF00

> <s_epik_cmdline>
J2VwaWtfcHl0aG9uJywgJy1waHQnLCAnMC4wJywgJy1waCcsICc3LjQnLCAnLW50JywgJy1tYScsICc1MDAnLCAnLWltYWUnLCAnPGluZmlsZS5tYWU+JywgJy1vbWFlJywgJzxvdXRmaWxlLm1hZT4n

> <r_lp_tautomer_probability>
1

> <r_epik_Ionization_Penalty>
  0.0010

> <r_epik_Ionization_Penalty_Charging>
  0.0000

> <r_epik_Ionization_Penalty_Neutral>
  0.0010

> <r_epik_State_Penalty>
  0.0000

> <r_epik_Charging_Adjusted_Penalty>
1.59615623662622e-05

> <i_epik_Tot_Q>
-1

> <i_epik_Tot_abs_Q>
3

> <s_epik_Chemistry_Notes>
This compound contains an acetal/aminal-like group ( X-CH(R)-Y where X, Y are N, S, or O) that may be acid/base labile, releasing an aldehyde.

> <s_m_subgroup_title>
glide-dock_Nicaido_neutral_pv1

> <s_m_subgroupid>
glide-dock_Nicaido_neutral_pv1

> <b_m_subgroup_collapsed>
0

$$$$
Cefuroxime
                    3D
 Schrodinger Suite 2022-2.
 44 46  0  0  1  0            999 V2000
  -34.2924  -21.2279  -29.3226 C   0  0  0  0  0  0
  -33.5679  -20.6011  -28.2838 O   0  0  0  0  0  0
  -33.8669  -19.2308  -28.3097 N   0  0  0  0  0  0
  -33.2744  -18.5210  -27.4236 C   0  0  0  0  0  0
  -33.5361  -17.0852  -27.4046 C   0  0  0  0  0  0
  -33.9127  -16.1695  -26.4566 C   0  0  0  0  0  0
  -33.9589  -14.9099  -27.1094 C   0  0  0  0  0  0
  -33.6228  -15.1502  -28.4107 C   0  0  0  0  0  0
  -33.3719  -16.4677  -28.6097 O   0  0  0  0  0  0
  -32.2498  -19.0071  -26.3869 C   0  0  0  0  0  0
  -31.6381  -18.0222  -25.6888 N   0  0  0  0  0  0
  -30.4730  -18.1148  -24.7953 C   0  0  1  0  0  0
  -30.5708  -19.1835  -23.6871 C   0  0  1  0  0  0
  -29.2758  -19.6542  -24.1512 N   0  0  0  0  0  0
  -29.3298  -18.9847  -25.3541 C   0  0  0  0  0  0
  -28.7689  -19.1412  -26.4133 O   0  0  0  0  0  0
  -28.7378  -20.8155  -23.5913 C   0  0  0  0  0  0
  -28.3530  -21.9783  -24.5831 C   0  0  0  0  0  0
  -27.2511  -22.5474  -24.4104 O   0  5  0  0  0  0
  -29.1700  -22.2685  -25.4899 O   0  0  0  0  0  0
  -28.6446  -20.8737  -22.2414 C   0  0  0  0  0  0
  -29.0015  -19.6655  -21.3729 C   0  0  0  0  0  0
  -30.4814  -18.7471  -21.9160 S   0  0  0  0  0  0
  -28.0647  -22.0444  -21.4611 C   0  0  0  0  0  0
  -29.0393  -22.6223  -20.6095 O   0  0  0  0  0  0
  -29.7485  -23.6865  -20.9922 C   0  0  0  0  0  0
  -30.6736  -23.9496  -20.0139 N   0  0  0  0  0  0
  -29.5686  -24.3484  -22.0175 O   0  0  0  0  0  0
  -31.9690  -20.1990  -26.2540 O   0  0  0  0  0  0
  -34.1144  -22.3026  -29.3023 H   0  0  0  0  0  0
  -35.3655  -21.0646  -29.2089 H   0  0  0  0  0  0
  -33.9693  -20.8549  -30.2961 H   0  0  0  0  0  0
  -34.1205  -16.3776  -25.4166 H   0  0  0  0  0  0
  -34.2166  -13.9512  -26.6819 H   0  0  0  0  0  0
  -33.5434  -14.5291  -29.2889 H   0  0  0  0  0  0
  -31.9345  -17.0748  -25.8797 H   0  0  0  0  0  0
  -30.1520  -17.1469  -24.4072 H   0  0  0  0  0  0
  -31.3373  -19.9439  -23.8447 H   0  0  0  0  0  0
  -29.1682  -19.9731  -20.3414 H   0  0  0  0  0  0
  -28.1496  -18.9848  -21.3627 H   0  0  0  0  0  0
  -27.6200  -22.8040  -22.1001 H   0  0  0  0  0  0
  -27.2526  -21.6642  -20.8410 H   0  0  0  0  0  0
  -30.7691  -23.2462  -19.2707 H   0  0  0  0  0  0
  -31.3472  -24.6855  -20.1618 H   0  0  0  0  0  0
  1  2  1  0  0  0
  1 30  1  0  0  0
  1 31  1  0  0  0
  1 32  1  0  0  0
  2  3  1  0  0  0
  3  4  2  3  0  0
  4  5  1  0  0  0
  4 10  1  0  0  0
  5  9  1  0  0  0
  5  6  2  0  0  0
  6  7  1  0  0  0
  6 33  1  0  0  0
  7  8  2  0  0  0
  7 34  1  0  0  0
  8  9  1  0  0  0
  8 35  1  0  0  0
 10 11  1  0  0  0
 10 29  2  0  0  0
 11 12  1  0  0  0
 11 36  1  0  0  0
 12 15  1  0  0  0
 12 13  1  0  0  0
 12 37  1  0  0  0
 13 23  1  0  0  0
 13 14  1  0  0  0
 13 38  1  0  0  0
 14 15  1  0  0  0
 14 17  1  0  0  0
 15 16  2  0  0  0
 17 18  1  0  0  0
 17 21  2  0  0  0
 18 19  1  0  0  0
 18 20  2  0  0  0
 21 22  1  0  0  0
 21 24  1  0  0  0
 22 23  1  0  0  0
 22 39  1  0  0  0
 22 40  1  0  0  0
 24 25  1  0  0  0
 24 41  1  0  0  0
 24 42  1  0  0  0
 25 26  1  0  0  0
 26 27  1  0  0  0
 26 28  2  0  0  0
 27 43  1  0  0  0
 27 44  1  0  0  0
M  CHG  1  19  -1
M  END
> <s_m_entry_id>
27321

> <s_m_entry_name>
data_maestro.10

> <s_m_Source_Path>
C:\Users\olshana1\Git\GramNeg-Accumulation\Gram Negative Permeation - OmpF

> <s_m_Source_File>
data_maestro.csv

> <i_m_Source_File_Index>
10

> <s_m_job_name>
glide-dock_Nicaido_neutral

> <s_i_glide_gridfile>
3POX-grid

> <i_i_glide_lignum>
14

> <i_i_glide_rotatable_bonds>
9

> <r_i_docking_score>
-5.49541478655926

> <r_i_glide_ligand_efficiency>
-0.189497061605492

> <r_i_glide_ligand_efficiency_sa>
-0.582195010135105

> <r_i_glide_ligand_efficiency_ln>
-1.25831063442668

> <r_i_glide_gscore>
-5.49541478655926

> <r_i_glide_lipo>
-0.42086424611348

> <r_i_glide_hbond>
-0.748805104856527

> <r_i_glide_metal>
0

> <r_i_glide_rewards>
-0.519998826302499

> <r_i_glide_evdw>
-29.6127338409424

> <r_i_glide_ecoul>
-15.3975391387939

> <r_i_glide_erotb>
0.663396273735242

> <r_i_glide_esite>
-0.678875320155784

> <r_i_glide_emodel>
-70.8641341229227

> <r_i_glide_energy>
-45.0102729797363

> <r_i_glide_einternal>
6.09531211853027

> <i_i_glide_confnum>
105

> <i_i_glide_posenum>
319

> <r_i_glide_eff_state_penalty>
0

> <r_glide_res:A132_vdw>
-0.710097112099872

> <r_glide_res:A132_coul>
-27.6370355129269

> <r_glide_res:A132_hbond>
-0.00662874281051815

> <r_glide_res:A132_dist>
2.43305615379635

> <r_glide_res:A132_Eint>
-28.3537613678373

> <r_glide_res:A117_vdw>
-5.04093801227857

> <r_glide_res:A117_coul>
27.7154264354498

> <r_glide_res:A117_hbond>
0

> <r_glide_res:A117_dist>
2.20821170867261

> <r_glide_res:A117_Eint>
22.6744884231712

> <r_glide_res:A113_vdw>
-1.6368772803896

> <r_glide_res:A113_coul>
14.4522780385093

> <r_glide_res:A113_hbond>
-0.16

> <r_glide_res:A113_dist>
1.74517081422395

> <r_glide_res:A113_Eint>
12.6554007581197

> <r_glide_res:A82_vdw>
-1.68305327495943

> <r_glide_res:A82_coul>
-43.7365525161811

> <r_glide_res:A82_hbond>
-0.16

> <r_glide_res:A82_dist>
2.01688115832761

> <r_glide_res:A82_Eint>
-45.5796057911405

> <r_glide_res:A42_vdw>
1.14742431688589

> <r_glide_res:A42_coul>
-59.0499927430409

> <r_glide_res:A42_hbond>
-0.4

> <r_glide_res:A42_dist>
1.81877508606135

> <r_glide_res:A42_Eint>
-58.302568426155

> <r_glide_res:A16_vdw>
-2.67563423003905

> <r_glide_res:A16_coul>
-49.941625648776

> <r_glide_res:A16_hbond>
0

> <r_glide_res:A16_dist>
1.93748209093574

> <r_glide_res:A16_Eint>
-52.6172598788151

> <s_m_source_file>
ligprep_Nicaido_neutral.maegz

> <i_m_source_file_index>
10

> <i_lp_mmshare_version>
58128

> <i_f3d_flags>
0

> <s_lp_Force_Field>
S-OPLS

> <r_lp_Energy>
45.356438

> <b_lp_Chiralities_Consistent>
1

> <s_lp_Variant>
Cefuroxime-2

> <s_epik_input>
bzFbY0hdW2NIXVtjSF1jMS9DKD1OXE9bQ0gzXSlDKD1PKVtOSF1bQ0BASF0yQyg9TylOKFtDQEhdMjMpQyhDKD1PKVtPSF0pPUMoW0NIMl1TMylbQ0gyXU9DKD1PKVtOSDJd

> <s_epik_cmdline>
J2VwaWtfcHl0aG9uJywgJy1waHQnLCAnMC4wJywgJy1waCcsICc3LjQnLCAnLW50JywgJy1tYScsICc1MDAnLCAnLWltYWUnLCAnPGluZmlsZS5tYWU+JywgJy1vbWFlJywgJzxvdXRmaWxlLm1hZT4n

> <r_lp_tautomer_probability>
1

> <r_epik_Ionization_Penalty>
  0.0000

> <r_epik_Ionization_Penalty_Charging>
  0.0000

> <r_epik_Ionization_Penalty_Neutral>
  0.0000

> <r_epik_State_Penalty>
  0.0000

> <r_epik_Charging_Adjusted_Penalty>
8.57368987839538e-06

> <i_epik_Tot_Q>
-1

> <i_epik_Tot_abs_Q>
1

> <s_epik_Chemistry_Notes>
This compound has an ester and may undergo hydrolysis at high or low pH. This compound has an imine and may undergo hydrolysis. This compound contains an acetal/aminal-like group ( X-CH(R)-Y where X, Y are N, S, or O) that may be acid/base labile, releasing an aldehyde.

> <s_m_subgroup_title>
glide-dock_Nicaido_neutral_pv1

> <s_m_subgroupid>
glide-dock_Nicaido_neutral_pv1

> <b_m_subgroup_collapsed>
0

$$$$
Imipenem
                    3D
 Schrodinger Suite 2022-2.
 37 38  0  0  1  0            999 V2000
  -34.9984  -23.1532  -20.4134 C   0  0  0  0  0  0
  -34.1565  -24.1031  -21.2779 C   0  0  2  0  0  0
  -33.3185  -23.3606  -22.3240 C   0  0  1  0  0  0
  -32.2540  -22.3406  -21.8715 C   0  0  2  0  0  0
  -32.0063  -20.9773  -22.5304 C   0  0  0  0  0  0
  -30.6210  -21.1399  -23.1145 C   0  0  0  0  0  0
  -29.6579  -19.7538  -23.6663 S   0  0  0  0  0  0
  -30.1064  -18.3968  -22.5400 C   0  0  0  0  0  0
  -29.7901  -18.7297  -21.0728 C   0  0  0  0  0  0
  -28.3451  -18.7496  -20.8134 N   0  3  0  0  0  0
  -27.7250  -19.5042  -19.8902 C   0  0  0  0  0  0
  -28.3689  -20.3497  -19.0709 N   0  0  0  0  0  0
  -30.2662  -22.4291  -23.1482 C   0  0  0  0  0  0
  -31.2602  -23.1770  -22.5257 N   0  0  0  0  0  0
  -32.1270  -24.1930  -22.8740 C   0  0  0  0  0  0
  -31.9689  -25.2320  -23.4778 O   0  0  0  0  0  0
  -28.9467  -23.0848  -23.6688 C   0  0  0  0  0  0
  -28.4251  -23.9496  -22.9244 O   0  5  0  0  0  0
  -28.5582  -22.7496  -24.8134 O   0  0  0  0  0  0
  -35.0346  -25.0026  -21.9258 O   0  0  0  0  0  0
  -34.3689  -22.4491  -19.8681 H   0  0  0  0  0  0
  -35.5771  -23.7070  -19.6733 H   0  0  0  0  0  0
  -35.6945  -22.5701  -21.0169 H   0  0  0  0  0  0
  -33.5100  -24.6928  -20.6258 H   0  0  0  0  0  0
  -33.9335  -22.9261  -23.1131 H   0  0  0  0  0  0
  -32.0679  -22.3523  -20.7948 H   0  0  0  0  0  0
  -32.7146  -20.7815  -23.3357 H   0  0  0  0  0  0
  -32.0893  -20.1688  -21.8070 H   0  0  0  0  0  0
  -29.5690  -17.5010  -22.8495 H   0  0  0  0  0  0
  -31.1657  -18.1671  -22.6554 H   0  0  0  0  0  0
  -30.2553  -17.9965  -20.4134 H   0  0  0  0  0  0
  -30.2093  -19.6985  -20.8134 H   0  0  0  0  0  0
  -26.6479  -19.4236  -19.8042 H   0  0  0  0  0  0
  -29.3942  -20.2447  -18.9365 H   0  0  0  0  0  0
  -27.8560  -20.8797  -18.3838 H   0  0  0  0  0  0
  -35.6592  -24.5043  -22.4300 H   0  0  0  0  0  0
  -27.7983  -18.0805  -21.3510 H   0  0  0  0  0  0
  1  2  1  0  0  0
  1 21  1  0  0  0
  1 22  1  0  0  0
  1 23  1  0  0  0
  2  3  1  0  0  0
  2 20  1  0  0  0
  2 24  1  0  0  0
  3 15  1  0  0  0
  3  4  1  0  0  0
  3 25  1  0  0  0
  4 14  1  0  0  0
  4  5  1  0  0  0
  4 26  1  0  0  0
  5  6  1  0  0  0
  5 27  1  0  0  0
  5 28  1  0  0  0
  6  7  1  0  0  0
  6 13  2  0  0  0
  7  8  1  0  0  0
  8  9  1  0  0  0
  8 29  1  0  0  0
  8 30  1  0  0  0
  9 10  1  0  0  0
  9 31  1  0  0  0
  9 32  1  0  0  0
 10 11  2  3  0  0
 10 37  1  0  0  0
 11 12  1  0  0  0
 11 33  1  0  0  0
 12 34  1  0  0  0
 12 35  1  0  0  0
 13 14  1  0  0  0
 13 17  1  0  0  0
 14 15  1  0  0  0
 15 16  2  0  0  0
 17 18  1  0  0  0
 17 19  2  0  0  0
 20 36  1  0  0  0
M  CHG  2  10   1  18  -1
M  END
> <s_m_entry_id>
27322

> <s_m_entry_name>
data_maestro.12

> <s_m_Source_Path>
C:\Users\olshana1\Git\GramNeg-Accumulation\Gram Negative Permeation - OmpF

> <s_m_Source_File>
data_maestro.csv

> <i_m_Source_File_Index>
12

> <s_m_job_name>
glide-dock_Nicaido_neutral

> <s_i_glide_gridfile>
3POX-grid

> <i_i_glide_lignum>
17

> <i_i_glide_rotatable_bonds>
7

> <r_i_docking_score>
-5.4889694076384

> <r_i_glide_ligand_efficiency>
-0.27444847038192

> <r_i_glide_ligand_efficiency_sa>
-0.744967762108301

> <r_i_glide_ligand_efficiency_ln>
-1.37370800440447

> <r_i_glide_gscore>
-5.4889694076384

> <r_i_glide_lipo>
0

> <r_i_glide_hbond>
-0.80618758264843

> <r_i_glide_metal>
0

> <r_i_glide_rewards>
-1.36808809090909

> <r_i_glide_evdw>
-13.5662574768066

> <r_i_glide_ecoul>
-21.3171730041504

> <r_i_glide_erotb>
1.02473259195513

> <r_i_glide_esite>
-0.463537501573114

> <r_i_glide_emodel>
-64.0468950198051

> <r_i_glide_energy>
-34.883430480957

> <r_i_glide_einternal>
5.23019075393677

> <i_i_glide_confnum>
278

> <i_i_glide_posenum>
350

> <r_i_glide_eff_state_penalty>
0

> <r_glide_res:A132_vdw>
-1.14294892681098

> <r_glide_res:A132_coul>
-14.5457080834525

> <r_glide_res:A132_hbond>
0

> <r_glide_res:A132_dist>
2.99706297707937

> <r_glide_res:A132_Eint>
-15.6886570102635

> <r_glide_res:A117_vdw>
-1.53110277456256

> <r_glide_res:A117_coul>
-5.66976845958457

> <r_glide_res:A117_hbond>
0

> <r_glide_res:A117_dist>
1.87616253499573

> <r_glide_res:A117_Eint>
-7.20087123414714

> <r_glide_res:A113_vdw>
1.30102678420008

> <r_glide_res:A113_coul>
-32.8779279256113

> <r_glide_res:A113_hbond>
-0.181103135473593

> <r_glide_res:A113_dist>
1.56220627094719

> <r_glide_res:A113_Eint>
-31.7580042768849

> <r_glide_res:A82_vdw>
0.156449996884083

> <r_glide_res:A82_coul>
-35.3121397271562

> <r_glide_res:A82_hbond>
-0.318976959433517

> <r_glide_res:A82_dist>
1.94056182924804

> <r_glide_res:A82_Eint>
-35.4746666897056

> <r_glide_res:A42_vdw>
-0.66943702515653

> <r_glide_res:A42_coul>
-29.7781903706293

> <r_glide_res:A42_hbond>
-0.30610748774132

> <r_glide_res:A42_dist>
2.0468336866583

> <r_glide_res:A42_Eint>
-30.7537348835271

> <r_glide_res:A16_vdw>
-0.392606489248918

> <r_glide_res:A16_coul>
-11.8712007214904

> <r_glide_res:A16_hbond>
0

> <r_glide_res:A16_dist>
4.05749320143048

> <r_glide_res:A16_Eint>
-12.2638072107394

> <s_m_source_file>
ligprep_Nicaido_neutral.maegz

> <i_m_source_file_index>
12

> <i_lp_mmshare_version>
58128

> <i_f3d_flags>
0

> <s_lp_Force_Field>
S-OPLS

> <r_lp_Energy>
22.988374

> <b_lp_Chiralities_Consistent>
1

> <s_lp_Variant>
Imipenem-2

> <s_epik_input>
W0NIM11bQ0BASF0oW09IXSlbQ0BASF0xQyg9TylOKFtDQEhdMTIpQyhDKD1PKVtPSF0pPUMoW0NIMl0yKVNbQ0gyXVtDSDJdL049W0NIXS9bTkgyXQ==

> <s_epik_cmdline>
J2VwaWtfcHl0aG9uJywgJy1waHQnLCAnMC4wJywgJy1waCcsICc3LjQnLCAnLW50JywgJy1tYScsICc1MDAnLCAnLWltYWUnLCAnPGluZmlsZS5tYWU+JywgJy1vbWFlJywgJzxvdXRmaWxlLm1hZT4n

> <r_lp_tautomer_probability>
1

> <r_epik_Ionization_Penalty>
  0.0001

> <r_epik_Ionization_Penalty_Charging>
  0.0001

> <r_epik_Ionization_Penalty_Neutral>
  0.0000

> <r_epik_State_Penalty>
  0.0000

> <r_epik_Charging_Adjusted_Penalty>
9.5675940864495e-05

> <i_epik_Tot_Q>
0

> <i_epik_Tot_abs_Q>
2

> <s_epik_Chemistry_Notes>
This compound has an imine and may undergo hydrolysis.

> <s_m_subgroup_title>
glide-dock_Nicaido_neutral_pv1

> <s_m_subgroupid>
glide-dock_Nicaido_neutral_pv1

> <b_m_subgroup_collapsed>
0

$$$$
BL-S217
                    3D
 Schrodinger Suite 2022-2.
 48 50  0  0  1  0            999 V2000
  -28.6771  -23.9486  -22.8040 O   0  0  0  0  0  0
  -29.5284  -23.2349  -22.3124 C   0  0  0  0  0  0
  -30.0940  -22.9775  -20.8980 C   0  0  2  0  0  0
  -30.9289  -21.8691  -21.5527 C   0  0  1  0  0  0
  -30.4757  -22.3662  -22.8392 N   0  0  0  0  0  0
  -30.9546  -21.8486  -24.0634 C   0  0  0  0  0  0
  -30.0984  -22.1946  -25.3402 C   0  0  0  0  0  0
  -28.8620  -22.3496  -25.2130 O   0  5  0  0  0  0
  -30.7157  -22.3494  -26.4138 O   0  0  0  0  0  0
  -32.0866  -21.0858  -24.1228 C   0  0  0  0  0  0
  -32.9620  -20.7633  -22.9134 C   0  0  0  0  0  0
  -32.7386  -21.9039  -21.5330 S   0  0  0  0  0  0
  -32.6297  -20.4291  -25.3870 C   0  0  0  0  0  0
  -33.7221  -21.1819  -25.8962 O   0  0  0  0  0  0
  -34.0968  -21.0632  -27.1780 C   0  0  0  0  0  0
  -35.2905  -21.9439  -27.5162 C   0  0  0  0  0  0
  -33.5676  -20.3499  -28.0306 O   0  0  0  0  0  0
  -29.1686  -22.3934  -19.9403 N   0  0  0  0  0  0
  -28.0453  -22.9295  -19.4527 C   0  0  0  0  0  0
  -27.4295  -22.2035  -18.2535 C   0  0  0  0  0  0
  -25.6441  -21.9075  -18.3987 S   0  0  0  0  0  0
  -25.4351  -20.5723  -19.5334 C   0  0  0  0  0  0
  -25.8046  -20.7117  -20.8873 C   0  0  0  0  0  0
  -25.5341  -19.6562  -21.7826 C   0  0  0  0  0  0
  -24.9212  -18.5247  -21.3498 N   0  3  0  0  0  0
  -24.5627  -17.4861  -22.3234 C   0  0  0  0  0  0
  -24.5860  -18.3520  -20.0465 C   0  0  0  0  0  0
  -24.8342  -19.3719  -19.1035 C   0  0  0  0  0  0
  -27.5269  -23.9494  -19.9134 O   0  0  0  0  0  0
  -30.7101  -23.7782  -20.4866 H   0  0  0  0  0  0
  -30.5532  -20.8587  -21.3703 H   0  0  0  0  0  0
  -32.7423  -19.7491  -22.5787 H   0  0  0  0  0  0
  -34.0152  -20.7894  -23.1949 H   0  0  0  0  0  0
  -32.9737  -19.4234  -25.1432 H   0  0  0  0  0  0
  -31.8493  -20.2985  -26.1349 H   0  0  0  0  0  0
  -35.5712  -21.8221  -28.5630 H   0  0  0  0  0  0
  -35.0479  -22.9921  -27.3418 H   0  0  0  0  0  0
  -36.1455  -21.6759  -26.8955 H   0  0  0  0  0  0
  -29.5482  -21.5981  -19.4342 H   0  0  0  0  0  0
  -27.6025  -22.8108  -17.3646 H   0  0  0  0  0  0
  -27.9284  -21.2489  -18.0784 H   0  0  0  0  0  0
  -26.2645  -21.6205  -21.2461 H   0  0  0  0  0  0
  -25.7700  -19.7075  -22.8363 H   0  0  0  0  0  0
  -25.1688  -17.6125  -23.2135 H   0  0  0  0  0  0
  -24.7690  -16.5028  -21.9107 H   0  0  0  0  0  0
  -23.5049  -17.5856  -22.5676 H   0  0  0  0  0  0
  -24.1055  -17.4183  -19.7916 H   0  0  0  0  0  0
  -24.5540  -19.2401  -18.0671 H   0  0  0  0  0  0
  1  2  2  0  0  0
  2  5  1  0  0  0
  2  3  1  0  0  0
  3  4  1  0  0  0
  3 18  1  0  0  0
  3 30  1  0  0  0
  4 12  1  0  0  0
  4  5  1  0  0  0
  4 31  1  0  0  0
  5  6  1  0  0  0
  6  7  1  0  0  0
  6 10  2  0  0  0
  7  8  1  0  0  0
  7  9  2  0  0  0
 10 11  1  0  0  0
 10 13  1  0  0  0
 11 12  1  0  0  0
 11 32  1  0  0  0
 11 33  1  0  0  0
 13 14  1  0  0  0
 13 34  1  0  0  0
 13 35  1  0  0  0
 14 15  1  0  0  0
 15 16  1  0  0  0
 15 17  2  0  0  0
 16 36  1  0  0  0
 16 37  1  0  0  0
 16 38  1  0  0  0
 18 19  1  0  0  0
 18 39  1  0  0  0
 19 20  1  0  0  0
 19 29  2  0  0  0
 20 21  1  0  0  0
 20 40  1  0  0  0
 20 41  1  0  0  0
 21 22  1  0  0  0
 22 28  1  0  0  0
 22 23  2  0  0  0
 23 24  1  0  0  0
 23 42  1  0  0  0
 24 25  2  0  0  0
 24 43  1  0  0  0
 25 26  1  0  0  0
 25 27  1  0  0  0
 26 44  1  0  0  0
 26 45  1  0  0  0
 26 46  1  0  0  0
 27 28  2  0  0  0
 27 47  1  0  0  0
 28 48  1  0  0  0
M  CHG  2   8  -1  25   1
M  END
> <s_m_entry_id>
27323

> <s_m_entry_name>
data_maestro.17

> <s_m_Source_Path>
C:\Users\olshana1\Git\GramNeg-Accumulation\Gram Negative Permeation - OmpF

> <s_m_Source_File>
data_maestro.csv

> <i_m_Source_File_Index>
17

> <s_m_job_name>
glide-dock_Nicaido_neutral

> <s_i_glide_gridfile>
3POX-grid

> <i_i_glide_lignum>
22

> <i_i_glide_rotatable_bonds>
9

> <r_i_docking_score>
-5.47882996859262

> <r_i_glide_ligand_efficiency>
-0.18892517133078

> <r_i_glide_ligand_efficiency_sa>
-0.580437982023635

> <r_i_glide_ligand_efficiency_ln>
-1.25451313166701

> <r_i_glide_gscore>
-5.47882996859262

> <r_i_glide_lipo>
-0.0340486200816532

> <r_i_glide_hbond>
-1.18470296196796

> <r_i_glide_metal>
0

> <r_i_glide_rewards>
-0.419185881705724

> <r_i_glide_evdw>
-24.0326557159424

> <r_i_glide_ecoul>
-18.8602333068848

> <r_i_glide_erotb>
0.729326637690335

> <r_i_glide_esite>
-0.539551360697787

> <r_i_glide_emodel>
-76.3039747328767

> <r_i_glide_energy>
-42.8928890228271

> <r_i_glide_einternal>
3.07592058181763

> <i_i_glide_confnum>
139

> <i_i_glide_posenum>
35

> <r_i_glide_eff_state_penalty>
0

> <r_glide_res:A132_vdw>
-1.72846190063539

> <r_glide_res:A132_coul>
-14.17654296463

> <r_glide_res:A132_hbond>
-0.16

> <r_glide_res:A132_dist>
1.97366918762536

> <r_glide_res:A132_Eint>
-16.0650048652653

> <r_glide_res:A117_vdw>
-2.74955312254294

> <r_glide_res:A117_coul>
-15.6120758238987

> <r_glide_res:A117_hbond>
0

> <r_glide_res:A117_dist>
2.35209386606264

> <r_glide_res:A117_Eint>
-18.3616289464416

> <r_glide_res:A113_vdw>
-2.9425640519346

> <r_glide_res:A113_coul>
-15.3322409821483

> <r_glide_res:A113_hbond>
-0.117760045172803

> <r_glide_res:A113_dist>
2.1687074206592

> <r_glide_res:A113_Eint>
-18.3925650792557

> <r_glide_res:A82_vdw>
-1.23618615561436

> <r_glide_res:A82_coul>
-22.9707045275236

> <r_glide_res:A82_hbond>
-0.255026205329751

> <r_glide_res:A82_dist>
2.03891578996729

> <r_glide_res:A82_Eint>
-24.4619168884677

> <r_glide_res:A42_vdw>
-0.096363705128004

> <r_glide_res:A42_coul>
-32.2508270538823

> <r_glide_res:A42_hbond>
-0.369945010689258

> <r_glide_res:A42_dist>
1.93244187978495

> <r_glide_res:A42_Eint>
-32.7171357696996

> <r_glide_res:A16_vdw>
-1.2864528986302

> <r_glide_res:A16_coul>
-32.8589619392963

> <r_glide_res:A16_hbond>
-0.281971700776149

> <r_glide_res:A16_dist>
2.09938505883956

> <r_glide_res:A16_Eint>
-34.4273865387027

> <s_m_source_file>
ligprep_Nicaido_neutral.maegz

> <i_m_source_file_index>
17

> <i_lp_mmshare_version>
58128

> <i_f3d_flags>
0

> <s_lp_Force_Field>
S-OPLS

> <r_lp_Energy>
45.233938

> <b_lp_Chiralities_Consistent>
1

> <s_lp_Variant>
BL-S217-1

> <s_epik_input>
W0NIM11DKD1PKU9bQ0gyXUMoW0NIMl1TMSk9QyhDKD1PKVtPSF0pTihbQ0BASF0xMilDKD1PKVtDQEhdMltOSF1DKD1PKVtDSDJdU2MzW2NIXVtjSF1bbitdKFtDSDNdKVtjSF1bY0hdMw==

> <s_epik_cmdline>
J2VwaWtfcHl0aG9uJywgJy1waHQnLCAnMC4wJywgJy1waCcsICc3LjQnLCAnLW50JywgJy1tYScsICc1MDAnLCAnLWltYWUnLCAnPGluZmlsZS5tYWU+JywgJy1vbWFlJywgJzxvdXRmaWxlLm1hZT4n

> <r_lp_tautomer_probability>
1

> <r_epik_Ionization_Penalty>
  0.0000

> <r_epik_Ionization_Penalty_Charging>
  0.0000

> <r_epik_Ionization_Penalty_Neutral>
  0.0000

> <r_epik_State_Penalty>
  0.0000

> <r_epik_Charging_Adjusted_Penalty>
6.14912740637116e-06

> <i_epik_Tot_Q>
0

> <i_epik_Tot_abs_Q>
2

> <s_epik_Chemistry_Notes>
This compound has an ester and may undergo hydrolysis at high or low pH. This compound contains an acetal/aminal-like group ( X-CH(R)-Y where X, Y are N, S, or O) that may be acid/base labile, releasing an aldehyde.

> <s_m_subgroup_title>
glide-dock_Nicaido_neutral_pv1

> <s_m_subgroupid>
glide-dock_Nicaido_neutral_pv1

> <b_m_subgroup_collapsed>
0

$$$$
Cephalosporin C
                    3D
 Schrodinger Suite 2022-2.
 45 46  0  0  1  0            999 V2000
  -19.1463  -23.9496  -15.6112 O   0  0  0  0  0  0
  -19.5288  -22.7799  -15.5183 C   0  0  0  0  0  0
  -20.5870  -22.2440  -16.1443 O   0  0  0  0  0  0
  -21.3125  -23.0205  -17.0855 C   0  0  0  0  0  0
  -22.7179  -22.4857  -17.3485 C   0  0  0  0  0  0
  -23.6970  -23.2607  -17.8897 C   0  0  0  0  0  0
  -25.0212  -22.8058  -18.0304 N   0  0  0  0  0  0
  -25.5434  -21.6896  -17.2728 C   0  0  2  0  0  0
  -26.8957  -21.9052  -17.9840 C   0  0  2  0  0  0
  -26.1974  -23.0951  -18.7061 C   0  0  0  0  0  0
  -26.4791  -23.9424  -19.5316 O   0  0  0  0  0  0
  -27.2437  -20.7496  -18.8123 N   0  0  0  0  0  0
  -28.0124  -20.7588  -19.9080 C   0  0  0  0  0  0
  -28.2643  -19.3870  -20.5490 C   0  0  0  0  0  0
  -29.0304  -19.4023  -21.8897 C   0  0  0  0  0  0
  -28.3434  -20.2146  -23.0072 C   0  0  0  0  0  0
  -28.8123  -19.8333  -24.4326 C   0  0  2  0  0  0
  -28.7846  -21.0219  -25.4175 C   0  0  0  0  0  0
  -29.5689  -20.9869  -26.3946 O   0  5  0  0  0  0
  -27.9690  -21.9496  -25.2134 O   0  0  0  0  0  0
  -27.9683  -18.7495  -24.9682 N   0  3  0  0  0  0
  -28.4905  -21.7895  -20.3826 O   0  0  0  0  0  0
  -24.4440  -20.2723  -17.5784 S   0  0  0  0  0  0
  -22.9306  -21.0296  -16.9246 C   0  0  0  0  0  0
  -23.4596  -24.7496  -18.3164 C   0  0  0  0  0  0
  -24.3695  -25.5496  -18.0135 O   0  5  0  0  0  0
  -22.3758  -25.0335  -18.8734 O   0  0  0  0  0  0
  -19.0656  -22.0227  -14.8857 H   0  0  0  0  0  0
  -21.3862  -24.0507  -16.7348 H   0  0  0  0  0  0
  -20.7594  -23.0307  -18.0254 H   0  0  0  0  0  0
  -25.5689  -21.9452  -16.2118 H   0  0  0  0  0  0
  -27.6860  -22.1937  -17.2897 H   0  0  0  0  0  0
  -26.9419  -19.8457  -18.4687 H   0  0  0  0  0  0
  -27.3041  -18.8890  -20.6896 H   0  0  0  0  0  0
  -28.8157  -18.7777  -19.8307 H   0  0  0  0  0  0
  -29.1530  -18.3664  -22.2096 H   0  0  0  0  0  0
  -30.0416  -19.7800  -21.7299 H   0  0  0  0  0  0
  -28.5489  -21.2676  -22.8164 H   0  0  0  0  0  0
  -27.2598  -20.1075  -22.9339 H   0  0  0  0  0  0
  -29.8408  -19.4717  -24.3820 H   0  0  0  0  0  0
  -28.3345  -18.4341  -25.8542 H   0  0  0  0  0  0
  -27.9492  -17.9777  -24.3144 H   0  0  0  0  0  0
  -22.9597  -20.9844  -15.8353 H   0  0  0  0  0  0
  -22.0876  -20.4216  -17.2531 H   0  0  0  0  0  0
  -27.0260  -19.0879  -25.0987 H   0  0  0  0  0  0
  1  2  2  0  0  0
  2  3  1  0  0  0
  2 28  1  0  0  0
  3  4  1  0  0  0
  4  5  1  0  0  0
  4 29  1  0  0  0
  4 30  1  0  0  0
  5 24  1  0  0  0
  5  6  2  0  0  0
  6  7  1  0  0  0
  6 25  1  0  0  0
  7 10  1  0  0  0
  7  8  1  0  0  0
  8  9  1  0  0  0
  8 23  1  0  0  0
  8 31  1  0  0  0
  9 10  1  0  0  0
  9 12  1  0  0  0
  9 32  1  0  0  0
 10 11  2  0  0  0
 12 13  1  0  0  0
 12 33  1  0  0  0
 13 14  1  0  0  0
 13 22  2  0  0  0
 14 15  1  0  0  0
 14 34  1  0  0  0
 14 35  1  0  0  0
 15 16  1  0  0  0
 15 36  1  0  0  0
 15 37  1  0  0  0
 16 17  1  0  0  0
 16 38  1  0  0  0
 16 39  1  0  0  0
 17 18  1  0  0  0
 17 21  1  0  0  0
 17 40  1  0  0  0
 18 19  1  0  0  0
 18 20  2  0  0  0
 21 41  1  0  0  0
 21 42  1  0  0  0
 21 45  1  0  0  0
 23 24  1  0  0  0
 24 43  1  0  0  0
 24 44  1  0  0  0
 25 26  1  0  0  0
 25 27  2  0  0  0
M  CHG  3  19  -1  21   1  26  -1
M  END
> <s_m_entry_id>
27324

> <s_m_entry_name>
data_maestro.25

> <s_m_Source_Path>
C:\Users\olshana1\Git\GramNeg-Accumulation\Gram Negative Permeation - OmpF

> <s_m_Source_File>
data_maestro.csv

> <i_m_Source_File_Index>
25

> <s_m_job_name>
glide-dock_Nicaido_neutral

> <s_i_glide_gridfile>
3POX-grid

> <i_i_glide_lignum>
32

> <i_i_glide_rotatable_bonds>
11

> <r_i_docking_score>
-5.47855296504437

> <r_i_glide_ligand_efficiency>
-0.202909369075717

> <r_i_glide_ligand_efficiency_sa>
-0.608728106558396

> <r_i_glide_ligand_efficiency_ln>
-1.27531680925773

> <r_i_glide_gscore>
-5.47855296504437

> <r_i_glide_lipo>
0

> <r_i_glide_hbond>
-0.980440715275501

> <r_i_glide_metal>
0

> <r_i_glide_rewards>
-0.678927521206381

> <r_i_glide_evdw>
-27.1217365264893

> <r_i_glide_ecoul>
-19.2149448394775

> <r_i_glide_erotb>
0.97830559423054

> <r_i_glide_esite>
-0.559161770546932

> <r_i_glide_emodel>
-77.1107898011903

> <r_i_glide_energy>
-46.3366813659668

> <r_i_glide_einternal>
10.0055093765259

> <i_i_glide_confnum>
165

> <i_i_glide_posenum>
267

> <r_i_glide_eff_state_penalty>
0

> <r_glide_res:A132_vdw>
-1.90780120893346

> <r_glide_res:A132_coul>
-43.9620878539027

> <r_glide_res:A132_hbond>
-0.074438090165758

> <r_glide_res:A132_dist>
2.31241863753108

> <r_glide_res:A132_Eint>
-45.9443271530019

> <r_glide_res:A117_vdw>
-2.91065065181577

> <r_glide_res:A117_coul>
-7.77174921493805

> <r_glide_res:A117_hbond>
0

> <r_glide_res:A117_dist>
2.16766284568103

> <r_glide_res:A117_Eint>
-10.6823998667538

> <r_glide_res:A113_vdw>
-2.61456372009162

> <r_glide_res:A113_coul>
18.8909801344136

> <r_glide_res:A113_hbond>
0

> <r_glide_res:A113_dist>
2.62291273551295

> <r_glide_res:A113_Eint>
16.276416414322

> <r_glide_res:A82_vdw>
-0.75086380520505

> <r_glide_res:A82_coul>
-34.1346296185178

> <r_glide_res:A82_hbond>
0

> <r_glide_res:A82_dist>
3.74596579662051

> <r_glide_res:A82_Eint>
-34.8854934237229

> <r_glide_res:A42_vdw>
1.22729400785811

> <r_glide_res:A42_coul>
-42.9049364464803

> <r_glide_res:A42_hbond>
-0.211847111536591

> <r_glide_res:A42_dist>
1.8059417645828

> <r_glide_res:A42_Eint>
-41.8894895501588

> <r_glide_res:A16_vdw>
0.678552816999218

> <r_glide_res:A16_coul>
-32.7068695345412

> <r_glide_res:A16_hbond>
-0.2

> <r_glide_res:A16_dist>
1.87866708633937

> <r_glide_res:A16_Eint>
-32.228316717542

> <s_m_source_file>
ligprep_Nicaido_neutral.maegz

> <i_m_source_file_index>
25

> <i_lp_mmshare_version>
58128

> <i_f3d_flags>
0

> <s_lp_Force_Field>
S-OPLS

> <r_lp_Energy>
27.061927

> <b_lp_Chiralities_Consistent>
1

> <s_lp_Variant>
Cephalosporin C-1

> <s_epik_input>
Tz1bQ0hdT1tDSDJdQyg9QzFDKD1PKVtPSF0pW0NIMl1TW0NASF0oTjEyKVtDQEhdKEMyPU8pW05IXUMoPU8pW0NIMl1bQ0gyXVtDSDJdW0NAQEhdKFtOSDJdKUMoPU8pW09IXQ==

> <s_epik_cmdline>
J2VwaWtfcHl0aG9uJywgJy1waHQnLCAnMC4wJywgJy1waCcsICc3LjQnLCAnLW50JywgJy1tYScsICc1MDAnLCAnLWltYWUnLCAnPGluZmlsZS5tYWU+JywgJy1vbWFlJywgJzxvdXRmaWxlLm1hZT4n

> <r_lp_tautomer_probability>
1

> <r_epik_Ionization_Penalty>
  0.0034

> <r_epik_Ionization_Penalty_Charging>
  0.0034

> <r_epik_Ionization_Penalty_Neutral>
  0.0000

> <r_epik_State_Penalty>
  0.0000

> <r_epik_Charging_Adjusted_Penalty>
0.00339038450865705

> <i_epik_Tot_Q>
-1

> <i_epik_Tot_abs_Q>
3

> <s_epik_Chemistry_Notes>
This compound has an ester and may undergo hydrolysis at high or low pH. This compound contains an acetal/aminal-like group ( X-CH(R)-Y where X, Y are N, S, or O) that may be acid/base labile, releasing an aldehyde.

> <s_m_subgroup_title>
glide-dock_Nicaido_neutral_pv1

> <s_m_subgroupid>
glide-dock_Nicaido_neutral_pv1

> <b_m_subgroup_collapsed>
0

$$$$
Ceftazidime
                    3D
 Schrodinger Suite 2022-2.
 58 61  0  0  1  0            999 V2000
  -21.4475  -23.3791  -18.6441 C   0  0  0  0  0  0
  -22.6539  -24.1755  -19.1810 C   0  0  0  0  0  0
  -22.2171  -25.0082  -20.4078 C   0  0  0  0  0  0
  -23.1802  -25.1410  -18.0785 C   0  0  0  0  0  0
  -24.3629  -25.5486  -18.1417 O   0  5  0  0  0  0
  -22.3676  -25.5493  -17.2134 O   0  0  0  0  0  0
  -23.5926  -23.1437  -19.5394 O   0  0  0  0  0  0
  -24.6827  -23.6534  -20.2714 N   0  0  0  0  0  0
  -25.4597  -22.7484  -20.7098 C   0  0  0  0  0  0
  -26.7208  -23.1517  -21.4414 C   0  0  0  0  0  0
  -27.7076  -22.2503  -21.3906 N   0  0  0  0  0  0
  -29.0203  -22.4040  -22.0067 C   0  0  1  0  0  0
  -29.7191  -21.0485  -22.1177 C   0  0  2  0  0  0
  -29.5333  -21.1139  -23.5597 N   0  0  0  0  0  0
  -29.8468  -20.0379  -24.4288 C   0  0  0  0  0  0
  -29.9085  -20.3855  -25.9897 C   0  0  0  0  0  0
  -29.9684  -21.5873  -26.3394 O   0  5  0  0  0  0
  -29.9692  -19.4410  -26.8041 O   0  0  0  0  0  0
  -30.0826  -18.7859  -23.9194 C   0  0  0  0  0  0
  -30.4351  -17.5412  -24.7346 C   0  0  0  0  0  0
  -31.8121  -17.5498  -25.2724 N   0  3  0  0  0  0
  -32.0136  -17.2939  -26.5916 C   0  0  0  0  0  0
  -33.3169  -17.2519  -27.1290 C   0  0  0  0  0  0
  -34.4176  -17.4682  -26.2762 C   0  0  0  0  0  0
  -34.1853  -17.7115  -24.9073 C   0  0  0  0  0  0
  -32.8597  -17.7413  -24.4288 C   0  0  0  0  0  0
  -29.9820  -18.4325  -22.4276 C   0  0  0  0  0  0
  -28.9388  -19.5467  -21.4906 S   0  0  0  0  0  0
  -28.9924  -22.3940  -23.5525 C   0  0  0  0  0  0
  -28.6014  -23.1494  -24.4184 O   0  0  0  0  0  0
  -26.8348  -24.2385  -22.0129 O   0  0  0  0  0  0
  -25.2340  -21.2819  -20.5911 C   0  0  0  0  0  0
  -25.4490  -20.5971  -19.4170 C   0  0  0  0  0  0
  -25.1685  -18.8844  -19.6051 S   0  0  0  0  0  0
  -24.7548  -19.1722  -21.2867 C   0  0  0  0  0  0
  -24.3694  -18.1467  -22.1298 N   0  0  0  0  0  0
  -24.8442  -20.4519  -21.6504 N   0  0  0  0  0  0
  -20.6124  -24.0296  -18.3828 H   0  0  0  0  0  0
  -21.0873  -22.6691  -19.3886 H   0  0  0  0  0  0
  -21.7159  -22.8072  -17.7562 H   0  0  0  0  0  0
  -21.3853  -25.6666  -20.1571 H   0  0  0  0  0  0
  -23.0232  -25.6377  -20.7855 H   0  0  0  0  0  0
  -21.8924  -24.3589  -21.2212 H   0  0  0  0  0  0
  -27.5477  -21.3676  -20.9192 H   0  0  0  0  0  0
  -29.6501  -23.1650  -21.5445 H   0  0  0  0  0  0
  -30.7767  -21.0904  -21.8499 H   0  0  0  0  0  0
  -30.3905  -16.6677  -24.0932 H   0  0  0  0  0  0
  -29.7171  -17.3650  -25.5351 H   0  0  0  0  0  0
  -31.1292  -17.1217  -27.1892 H   0  0  0  0  0  0
  -33.4661  -17.0505  -28.1805 H   0  0  0  0  0  0
  -35.4254  -17.4438  -26.6648 H   0  0  0  0  0  0
  -35.0117  -17.8640  -24.2274 H   0  0  0  0  0  0
  -32.6251  -17.8922  -23.3864 H   0  0  0  0  0  0
  -29.5691  -17.4357  -22.2759 H   0  0  0  0  0  0
  -30.9752  -18.4300  -21.9802 H   0  0  0  0  0  0
  -25.7617  -20.9880  -18.4589 H   0  0  0  0  0  0
  -24.4021  -18.3132  -23.1268 H   0  0  0  0  0  0
  -24.6304  -17.2054  -21.8715 H   0  0  0  0  0  0
  1  2  1  0  0  0
  1 38  1  0  0  0
  1 39  1  0  0  0
  1 40  1  0  0  0
  2  3  1  0  0  0
  2  4  1  0  0  0
  2  7  1  0  0  0
  3 41  1  0  0  0
  3 42  1  0  0  0
  3 43  1  0  0  0
  4  5  1  0  0  0
  4  6  2  0  0  0
  7  8  1  0  0  0
  8  9  2  3  0  0
  9 10  1  0  0  0
  9 32  1  0  0  0
 10 11  1  0  0  0
 10 31  2  0  0  0
 11 12  1  0  0  0
 11 44  1  0  0  0
 12 29  1  0  0  0
 12 13  1  0  0  0
 12 45  1  0  0  0
 13 28  1  0  0  0
 13 14  1  0  0  0
 13 46  1  0  0  0
 14 15  1  0  0  0
 14 29  1  0  0  0
 15 16  1  0  0  0
 15 19  2  0  0  0
 16 17  1  0  0  0
 16 18  2  0  0  0
 19 20  1  0  0  0
 19 27  1  0  0  0
 20 21  1  0  0  0
 20 47  1  0  0  0
 20 48  1  0  0  0
 21 26  1  0  0  0
 21 22  2  0  0  0
 22 23  1  0  0  0
 22 49  1  0  0  0
 23 24  2  0  0  0
 23 50  1  0  0  0
 24 25  1  0  0  0
 24 51  1  0  0  0
 25 26  2  0  0  0
 25 52  1  0  0  0
 26 53  1  0  0  0
 27 28  1  0  0  0
 27 54  1  0  0  0
 27 55  1  0  0  0
 29 30  2  0  0  0
 32 37  1  0  0  0
 32 33  2  0  0  0
 33 34  1  0  0  0
 33 56  1  0  0  0
 34 35  1  0  0  0
 35 36  1  0  0  0
 35 37  2  0  0  0
 36 57  1  0  0  0
 36 58  1  0  0  0
M  CHG  3   5  -1  17  -1  21   1
M  END
> <s_m_entry_id>
27325

> <s_m_entry_name>
data_maestro.30

> <s_m_Source_Path>
C:\Users\olshana1\Git\GramNeg-Accumulation\Gram Negative Permeation - OmpF

> <s_m_Source_File>
data_maestro.csv

> <i_m_Source_File_Index>
30

> <s_m_job_name>
glide-dock_Nicaido_neutral

> <s_i_glide_gridfile>
3POX-grid

> <i_i_glide_lignum>
38

> <i_i_glide_rotatable_bonds>
10

> <r_i_docking_score>
-5.47542723627407

> <r_i_glide_ligand_efficiency>
-0.147984519899299

> <r_i_glide_ligand_efficiency_sa>
-0.493117250320245

> <r_i_glide_ligand_efficiency_ln>
-1.18749180532127

> <r_i_glide_gscore>
-5.47542723627407

> <r_i_glide_lipo>
0

> <r_i_glide_hbond>
-0.944130893167378

> <r_i_glide_metal>
0

> <r_i_glide_rewards>
0.000423464980926812

> <r_i_glide_evdw>
-30.9765815734863

> <r_i_glide_ecoul>
-18.7148399353027

> <r_i_glide_erotb>
0.556495996469625

> <r_i_glide_esite>
-0.732160735587523

> <r_i_glide_emodel>
-86.492930710026

> <r_i_glide_energy>
-49.6914215087891

> <r_i_glide_einternal>
7.00776243209839

> <i_i_glide_confnum>
336

> <i_i_glide_posenum>
164

> <r_i_glide_eff_state_penalty>
0

> <r_glide_res:A132_vdw>
-1.25289989716548

> <r_glide_res:A132_coul>
-40.7574716351431

> <r_glide_res:A132_hbond>
-0.0824564352262924

> <r_glide_res:A132_dist>
2.04873068522645

> <r_glide_res:A132_Eint>
-42.0928279675349

> <r_glide_res:A117_vdw>
-5.89942711316334

> <r_glide_res:A117_coul>
13.2775666702135

> <r_glide_res:A117_hbond>
0

> <r_glide_res:A117_dist>
2.2322161904812

> <r_glide_res:A117_Eint>
7.37813955705018

> <r_glide_res:A113_vdw>
-2.57320204978805

> <r_glide_res:A113_coul>
10.3967625943865

> <r_glide_res:A113_hbond>
0

> <r_glide_res:A113_dist>
3.41701726611949

> <r_glide_res:A113_Eint>
7.82356054459847

> <r_glide_res:A82_vdw>
-1.71716777468793

> <r_glide_res:A82_coul>
-37.0757107568778

> <r_glide_res:A82_hbond>
-0.16

> <r_glide_res:A82_dist>
1.95931552045796

> <r_glide_res:A82_Eint>
-38.9528785315657

> <r_glide_res:A42_vdw>
-1.90018128727998

> <r_glide_res:A42_coul>
-41.4318266555464

> <r_glide_res:A42_hbond>
-0.143500139804768

> <r_glide_res:A42_dist>
2.24571750413096

> <r_glide_res:A42_Eint>
-43.4755080826312

> <r_glide_res:A16_vdw>
1.25458541463363

> <r_glide_res:A16_coul>
-39.0961119656429

> <r_glide_res:A16_hbond>
-0.260023149470899

> <r_glide_res:A16_dist>
1.85906674418349

> <r_glide_res:A16_Eint>
-38.1015497004801

> <s_m_source_file>
ligprep_Nicaido_neutral.maegz

> <i_m_source_file_index>
30

> <i_lp_mmshare_version>
58128

> <i_f3d_flags>
0

> <s_lp_Force_Field>
S-OPLS

> <r_lp_Energy>
86.633473

> <b_lp_Chiralities_Consistent>
1

> <s_lp_Variant>
Ceftazidime-1

> <s_epik_input>
W09IXUMoPU8pQyhbQ0gzXSkoW0NIM10pTy9OPUMoYzFbY0hdc2MobjEpW05IMl0pL0MoPU8pW05IXVtDQEBIXTJDKD1PKU4oW0NAQEhdMjMpQyhDKD1PKVtPSF0pPUMoW0NIMl1TMylbQ0gyXVtuK100W2NIXVtjSF1bY0hdW2NIXVtjSF00

> <s_epik_cmdline>
J2VwaWtfcHl0aG9uJywgJy1waHQnLCAnMC4wJywgJy1waCcsICc3LjQnLCAnLW50JywgJy1tYScsICc1MDAnLCAnLWltYWUnLCAnPGluZmlsZS5tYWU+JywgJy1vbWFlJywgJzxvdXRmaWxlLm1hZT4n

> <r_lp_tautomer_probability>
1

> <r_epik_Ionization_Penalty>
  0.0005

> <r_epik_Ionization_Penalty_Charging>
  0.0001

> <r_epik_Ionization_Penalty_Neutral>
  0.0005

> <r_epik_State_Penalty>
  0.0000

> <r_epik_Charging_Adjusted_Penalty>
5.84857251211915e-05

> <i_epik_Tot_Q>
-1

> <i_epik_Tot_abs_Q>
3

> <s_epik_Chemistry_Notes>
This compound has an imine and may undergo hydrolysis. This compound contains an acetal/aminal-like group ( X-CH(R)-Y where X, Y are N, S, or O) that may be acid/base labile, releasing an aldehyde.

> <s_m_subgroup_title>
glide-dock_Nicaido_neutral_pv1

> <s_m_subgroupid>
glide-dock_Nicaido_neutral_pv1

> <b_m_subgroup_collapsed>
0

$$$$
Imipenem
                    3D
 Schrodinger Suite 2022-2.
 37 38  0  0  1  0            999 V2000
  -24.3592  -19.8033  -26.3963 C   0  0  0  0  0  0
  -23.2405  -20.0295  -25.3738 C   0  0  2  0  0  0
  -23.6253  -20.7831  -24.0901 C   0  0  1  0  0  0
  -24.8680  -20.3960  -23.2640 C   0  0  2  0  0  0
  -25.0207  -20.5815  -21.7438 C   0  0  0  0  0  0
  -26.2024  -21.5193  -21.6673 C   0  0  0  0  0  0
  -27.1496  -21.7766  -20.1882 S   0  0  0  0  0  0
  -27.1874  -20.1658  -19.3582 C   0  0  0  0  0  0
  -27.7153  -19.0391  -20.2616 C   0  0  0  0  0  0
  -29.1689  -19.0637  -20.4134 N   0  3  0  0  0  0
  -29.8000  -18.1849  -21.2058 C   0  0  0  0  0  0
  -31.1354  -18.0654  -21.2134 N   0  0  0  0  0  0
  -26.4109  -22.1049  -22.8492 C   0  0  0  0  0  0
  -25.5127  -21.5978  -23.7800 N   0  0  0  0  0  0
  -24.3691  -22.1146  -24.3642 C   0  0  0  0  0  0
  -24.1116  -23.2093  -24.8201 O   0  0  0  0  0  0
  -27.4904  -23.1496  -23.2475 C   0  0  0  0  0  0
  -27.7303  -24.0537  -22.4134 O   0  5  0  0  0  0
  -27.9454  -23.0765  -24.4134 O   0  0  0  0  0  0
  -22.7689  -18.7496  -25.0278 O   0  0  0  0  0  0
  -24.7245  -20.7415  -26.8134 H   0  0  0  0  0  0
  -23.9689  -19.1997  -27.2133 H   0  0  0  0  0  0
  -25.2076  -19.2651  -25.9719 H   0  0  0  0  0  0
  -22.4178  -20.5519  -25.8638 H   0  0  0  0  0  0
  -22.7679  -20.9114  -23.4289 H   0  0  0  0  0  0
  -25.3812  -19.5098  -23.6430 H   0  0  0  0  0  0
  -24.1485  -21.0662  -21.3040 H   0  0  0  0  0  0
  -25.1714  -19.6334  -21.2320 H   0  0  0  0  0  0
  -27.8095  -20.2663  -18.4675 H   0  0  0  0  0  0
  -26.1844  -19.9235  -19.0073 H   0  0  0  0  0  0
  -27.4461  -18.0762  -19.8294 H   0  0  0  0  0  0
  -27.2689  -19.0619  -21.2535 H   0  0  0  0  0  0
  -29.2136  -17.5496  -21.8564 H   0  0  0  0  0  0
  -31.6807  -18.6369  -20.5784 H   0  0  0  0  0  0
  -31.5689  -17.3051  -21.7298 H   0  0  0  0  0  0
  -23.4880  -18.1215  -25.1223 H   0  0  0  0  0  0
  -29.7352  -19.5496  -19.6991 H   0  0  0  0  0  0
  1  2  1  0  0  0
  1 21  1  0  0  0
  1 22  1  0  0  0
  1 23  1  0  0  0
  2  3  1  0  0  0
  2 20  1  0  0  0
  2 24  1  0  0  0
  3 15  1  0  0  0
  3  4  1  0  0  0
  3 25  1  0  0  0
  4 14  1  0  0  0
  4  5  1  0  0  0
  4 26  1  0  0  0
  5  6  1  0  0  0
  5 27  1  0  0  0
  5 28  1  0  0  0
  6  7  1  0  0  0
  6 13  2  0  0  0
  7  8  1  0  0  0
  8  9  1  0  0  0
  8 29  1  0  0  0
  8 30  1  0  0  0
  9 10  1  0  0  0
  9 31  1  0  0  0
  9 32  1  0  0  0
 10 11  2  3  0  0
 10 37  1  0  0  0
 11 12  1  0  0  0
 11 33  1  0  0  0
 12 34  1  0  0  0
 12 35  1  0  0  0
 13 14  1  0  0  0
 13 17  1  0  0  0
 14 15  1  0  0  0
 15 16  2  0  0  0
 17 18  1  0  0  0
 17 19  2  0  0  0
 20 36  1  0  0  0
M  CHG  2  10   1  18  -1
M  END
> <s_m_entry_id>
27326

> <s_m_entry_name>
data_maestro.12

> <s_m_Source_Path>
C:\Users\olshana1\Git\GramNeg-Accumulation\Gram Negative Permeation - OmpF

> <s_m_Source_File>
data_maestro.csv

> <i_m_Source_File_Index>
12

> <s_m_job_name>
glide-dock_Nicaido_neutral

> <s_i_glide_gridfile>
3POX-grid

> <i_i_glide_lignum>
16

> <i_i_glide_rotatable_bonds>
7

> <r_i_docking_score>
-5.46484620182587

> <r_i_glide_ligand_efficiency>
-0.273242310091293

> <r_i_glide_ligand_efficiency_sa>
-0.741693739370256

> <r_i_glide_ligand_efficiency_ln>
-1.36767076162617

> <r_i_glide_gscore>
-5.46484620182587

> <r_i_glide_lipo>
0

> <r_i_glide_hbond>
-0.746116004300853

> <r_i_glide_metal>
0

> <r_i_glide_rewards>
-1.36808809090909

> <r_i_glide_evdw>
-11.8831977844238

> <r_i_glide_ecoul>
-22.2372226715088

> <r_i_glide_erotb>
1.02473259195513

> <r_i_glide_esite>
-0.445631408623538

> <r_i_glide_emodel>
-63.3732553356287

> <r_i_glide_energy>
-34.1204204559326

> <r_i_glide_einternal>
7.84837341308594

> <i_i_glide_confnum>
169

> <i_i_glide_posenum>
145

> <r_i_glide_eff_state_penalty>
0

> <r_glide_res:A132_vdw>
-1.34480241152509

> <r_glide_res:A132_coul>
-20.6120022003066

> <r_glide_res:A132_hbond>
0

> <r_glide_res:A132_dist>
2.57356718147875

> <r_glide_res:A132_Eint>
-21.9568046118317

> <r_glide_res:A117_vdw>
-1.96366107030421

> <r_glide_res:A117_coul>
-13.4125889014994

> <r_glide_res:A117_hbond>
-0.16

> <r_glide_res:A117_dist>
1.75434355287123

> <r_glide_res:A117_Eint>
-15.5362499718036

> <r_glide_res:A113_vdw>
2.07443527368956

> <r_glide_res:A113_coul>
-27.3902522476014

> <r_glide_res:A113_hbond>
-0.21548605160583

> <r_glide_res:A113_dist>
1.587681935601

> <r_glide_res:A113_Eint>
-25.5313030255176

> <r_glide_res:A82_vdw>
0.783860273411668

> <r_glide_res:A82_coul>
-32.4637799669344

> <r_glide_res:A82_hbond>
-0.211909512364658

> <r_glide_res:A82_dist>
1.8079592810432

> <r_glide_res:A82_Eint>
-31.8918292058874

> <r_glide_res:A42_vdw>
-1.27049320242535

> <r_glide_res:A42_coul>
-28.1550914262625

> <r_glide_res:A42_hbond>
-0.158720440330364

> <r_glide_res:A42_dist>
2.05787212854654

> <r_glide_res:A42_Eint>
-29.5843050690182

> <r_glide_res:A16_vdw>
-0.18371459428554

> <r_glide_res:A16_coul>
-6.34250850530869

> <r_glide_res:A16_hbond>
0

> <r_glide_res:A16_dist>
4.78699101704914

> <r_glide_res:A16_Eint>
-6.52622309959423

> <s_m_source_file>
ligprep_Nicaido_neutral.maegz

> <i_m_source_file_index>
12

> <i_lp_mmshare_version>
58128

> <i_f3d_flags>
0

> <s_lp_Force_Field>
S-OPLS

> <r_lp_Energy>
18.714001

> <b_lp_Chiralities_Consistent>
1

> <s_lp_Variant>
Imipenem-1

> <s_epik_input>
W0NIM11bQ0BASF0oW09IXSlbQ0BASF0xQyg9TylOKFtDQEhdMTIpQyhDKD1PKVtPSF0pPUMoW0NIMl0yKVNbQ0gyXVtDSDJdL049W0NIXS9bTkgyXQ==

> <s_epik_cmdline>
J2VwaWtfcHl0aG9uJywgJy1waHQnLCAnMC4wJywgJy1waCcsICc3LjQnLCAnLW50JywgJy1tYScsICc1MDAnLCAnLWltYWUnLCAnPGluZmlsZS5tYWU+JywgJy1vbWFlJywgJzxvdXRmaWxlLm1hZT4n

> <r_lp_tautomer_probability>
1

> <r_epik_Ionization_Penalty>
  0.0001

> <r_epik_Ionization_Penalty_Charging>
  0.0001

> <r_epik_Ionization_Penalty_Neutral>
  0.0000

> <r_epik_State_Penalty>
  0.0000

> <r_epik_Charging_Adjusted_Penalty>
9.5675940864495e-05

> <i_epik_Tot_Q>
0

> <i_epik_Tot_abs_Q>
2

> <s_epik_Chemistry_Notes>
This compound has an imine and may undergo hydrolysis.

> <s_m_subgroup_title>
glide-dock_Nicaido_neutral_pv1

> <s_m_subgroupid>
glide-dock_Nicaido_neutral_pv1

> <b_m_subgroup_collapsed>
0

$$$$
Cefotaxime
                    3D
 Schrodinger Suite 2022-2.
 46 48  0  0  1  0            999 V2000
  -31.9700  -16.8970  -26.5125 C   0  0  0  0  0  0
  -31.0826  -18.1062  -26.2515 C   0  0  0  0  0  0
  -30.0845  -17.8478  -25.3938 O   0  0  0  0  0  0
  -29.1644  -18.8617  -25.0076 C   0  0  0  0  0  0
  -29.7268  -19.7747  -23.9194 C   0  0  0  0  0  0
  -29.6499  -21.1279  -23.9418 C   0  0  0  0  0  0
  -30.1406  -21.8435  -22.8412 N   0  0  0  0  0  0
  -31.5180  -21.5879  -22.4390 C   0  0  1  0  0  0
  -31.2993  -22.6735  -21.3682 C   0  0  2  0  0  0
  -30.0906  -23.0968  -22.2419 C   0  0  0  0  0  0
  -29.4130  -24.0912  -22.4140 O   0  0  0  0  0  0
  -32.4119  -23.6344  -21.2646 N   0  0  0  0  0  0
  -32.9510  -24.4045  -22.2353 C   0  0  0  0  0  0
  -34.1956  -25.1940  -21.8107 C   0  0  0  0  0  0
  -35.1004  -24.5137  -20.8256 C   0  0  0  0  0  0
  -35.9703  -25.2384  -20.0372 C   0  0  0  0  0  0
  -36.8807  -24.2314  -18.9419 S   0  0  0  0  0  0
  -36.0927  -22.8320  -19.6438 C   0  0  0  0  0  0
  -36.3685  -21.5493  -19.2136 N   0  0  0  0  0  0
  -35.2255  -23.1307  -20.6093 N   0  0  0  0  0  0
  -34.5074  -26.3592  -22.2463 N   0  0  0  0  0  0
  -33.5703  -26.9340  -23.1258 O   0  0  0  0  0  0
  -34.1419  -28.1090  -23.6720 C   0  0  0  0  0  0
  -32.4982  -24.4735  -23.3803 O   0  0  0  0  0  0
  -31.7743  -19.8188  -22.0170 S   0  0  0  0  0  0
  -30.2636  -19.0544  -22.6839 C   0  0  0  0  0  0
  -28.9899  -21.9466  -25.0953 C   0  0  0  0  0  0
  -27.9696  -22.6141  -24.8130 O   0  5  0  0  0  0
  -29.5691  -21.9285  -26.2062 O   0  0  0  0  0  0
  -31.3032  -19.1818  -26.8037 O   0  0  0  0  0  0
  -31.4841  -16.2184  -27.2158 H   0  0  0  0  0  0
  -32.9249  -17.2100  -26.9376 H   0  0  0  0  0  0
  -32.1649  -16.3586  -25.5837 H   0  0  0  0  0  0
  -28.2769  -18.3698  -24.6080 H   0  0  0  0  0  0
  -28.8366  -19.4223  -25.8825 H   0  0  0  0  0  0
  -32.2040  -21.8758  -23.2389 H   0  0  0  0  0  0
  -31.0191  -22.2349  -20.4134 H   0  0  0  0  0  0
  -32.8740  -23.6542  -20.3639 H   0  0  0  0  0  0
  -36.1083  -26.3092  -20.0134 H   0  0  0  0  0  0
  -35.6854  -20.8296  -19.4282 H   0  0  0  0  0  0
  -36.7764  -21.4356  -18.2930 H   0  0  0  0  0  0
  -33.4324  -28.5787  -24.3543 H   0  0  0  0  0  0
  -34.3894  -28.8313  -22.8932 H   0  0  0  0  0  0
  -35.0459  -27.8798  -24.2380 H   0  0  0  0  0  0
  -29.4892  -19.0636  -21.9158 H   0  0  0  0  0  0
  -30.4804  -18.0061  -22.8904 H   0  0  0  0  0  0
  1  2  1  0  0  0
  1 31  1  0  0  0
  1 32  1  0  0  0
  1 33  1  0  0  0
  2  3  1  0  0  0
  2 30  2  0  0  0
  3  4  1  0  0  0
  4  5  1  0  0  0
  4 34  1  0  0  0
  4 35  1  0  0  0
  5 26  1  0  0  0
  5  6  2  0  0  0
  6  7  1  0  0  0
  6 27  1  0  0  0
  7 10  1  0  0  0
  7  8  1  0  0  0
  8  9  1  0  0  0
  8 25  1  0  0  0
  8 36  1  0  0  0
  9 10  1  0  0  0
  9 12  1  0  0  0
  9 37  1  0  0  0
 10 11  2  0  0  0
 12 13  1  0  0  0
 12 38  1  0  0  0
 13 14  1  0  0  0
 13 24  2  0  0  0
 14 15  1  0  0  0
 14 21  2  3  0  0
 15 20  1  0  0  0
 15 16  2  0  0  0
 16 17  1  0  0  0
 16 39  1  0  0  0
 17 18  1  0  0  0
 18 19  1  0  0  0
 18 20  2  0  0  0
 19 40  1  0  0  0
 19 41  1  0  0  0
 21 22  1  0  0  0
 22 23  1  0  0  0
 23 42  1  0  0  0
 23 43  1  0  0  0
 23 44  1  0  0  0
 25 26  1  0  0  0
 26 45  1  0  0  0
 26 46  1  0  0  0
 27 28  1  0  0  0
 27 29  2  0  0  0
M  CHG  1  28  -1
M  END
> <s_m_entry_id>
27327

> <s_m_entry_name>
data_maestro.6

> <s_m_Source_Path>
C:\Users\olshana1\Git\GramNeg-Accumulation\Gram Negative Permeation - OmpF

> <s_m_Source_File>
data_maestro.csv

> <i_m_Source_File_Index>
6

> <s_m_job_name>
glide-dock_Nicaido_neutral

> <s_i_glide_gridfile>
3POX-grid

> <i_i_glide_lignum>
8

> <i_i_glide_rotatable_bonds>
9

> <r_i_docking_score>
-5.46100789601179

> <r_i_glide_ligand_efficiency>
-0.182033596533726

> <r_i_glide_ligand_efficiency_sa>
-0.565620707684022

> <r_i_glide_ligand_efficiency_ln>
-1.24080049642068

> <r_i_glide_gscore>
-5.46100789601179

> <r_i_glide_lipo>
-0.0289518494967805

> <r_i_glide_hbond>
-1.51945360240877

> <r_i_glide_metal>
0

> <r_i_glide_rewards>
-0.308611114747115

> <r_i_glide_evdw>
-29.220666885376

> <r_i_glide_ecoul>
-15.3481798171997

> <r_i_glide_erotb>
0.680611118548691

> <r_i_glide_esite>
-0.521342131059062

> <r_i_glide_emodel>
-68.7287627934311

> <r_i_glide_energy>
-44.5688467025757

> <r_i_glide_einternal>
8.50540924072266

> <i_i_glide_confnum>
120

> <i_i_glide_posenum>
92

> <r_i_glide_eff_state_penalty>
0

> <r_glide_res:A132_vdw>
-1.2111088752322

> <r_glide_res:A132_coul>
-27.2684410736411

> <r_glide_res:A132_hbond>
0

> <r_glide_res:A132_dist>
2.76597096136653

> <r_glide_res:A132_Eint>
-28.4795499488733

> <r_glide_res:A117_vdw>
-3.50278615291193

> <r_glide_res:A117_coul>
23.2965920617005

> <r_glide_res:A117_hbond>
0

> <r_glide_res:A117_dist>
2.50760509757263

> <r_glide_res:A117_Eint>
19.7938059087885

> <r_glide_res:A113_vdw>
-4.25665007014042

> <r_glide_res:A113_coul>
14.7275203200139

> <r_glide_res:A113_hbond>
-0.293228252625383

> <r_glide_res:A113_dist>
1.9985402969985

> <r_glide_res:A113_Eint>
10.177641997248

> <r_glide_res:A82_vdw>
-1.99616064684634

> <r_glide_res:A82_coul>
-45.5852366382455

> <r_glide_res:A82_hbond>
-0.146614126312692

> <r_glide_res:A82_dist>
1.94024798035912

> <r_glide_res:A82_Eint>
-47.7280114114046

> <r_glide_res:A42_vdw>
2.2250150539608

> <r_glide_res:A42_coul>
-56.8565030493536

> <r_glide_res:A42_hbond>
-0.431430656532443

> <r_glide_res:A42_dist>
1.79148393910778

> <r_glide_res:A42_Eint>
-55.0629186519252

> <r_glide_res:A16_vdw>
-0.911010422939048

> <r_glide_res:A16_coul>
-50.0516338789942

> <r_glide_res:A16_hbond>
-0.157541023039059

> <r_glide_res:A16_dist>
2.18491795392188

> <r_glide_res:A16_Eint>
-51.1201853249723

> <s_m_source_file>
ligprep_Nicaido_neutral.maegz

> <i_m_source_file_index>
6

> <i_lp_mmshare_version>
58128

> <i_f3d_flags>
0

> <s_lp_Force_Field>
S-OPLS

> <r_lp_Energy>
51.702138

> <b_lp_Chiralities_Consistent>
1

> <s_lp_Variant>
Cefotaxime-2

> <s_epik_input>
W0NIM11DKD1PKU9bQ0gyXUMoPUMxQyg9TylbT0hdKVtDSDJdU1tDQEBIXShOMTIpW0NASF0oQzI9TylbTkhdQyg9TykvQyg9Ti9PW0NIM10pYzNbY0hdc2MobjMpW05IMl0=

> <s_epik_cmdline>
J2VwaWtfcHl0aG9uJywgJy1waHQnLCAnMC4wJywgJy1waCcsICc3LjQnLCAnLW50JywgJy1tYScsICc1MDAnLCAnLWltYWUnLCAnPGluZmlsZS5tYWU+JywgJy1vbWFlJywgJzxvdXRmaWxlLm1hZT4n

> <r_lp_tautomer_probability>
1

> <r_epik_Ionization_Penalty>
  0.0004

> <r_epik_Ionization_Penalty_Charging>
  0.0000

> <r_epik_Ionization_Penalty_Neutral>
  0.0004

> <r_epik_State_Penalty>
  0.0000

> <r_epik_Charging_Adjusted_Penalty>
5.45682606121274e-06

> <i_epik_Tot_Q>
-1

> <i_epik_Tot_abs_Q>
1

> <s_epik_Chemistry_Notes>
This compound has an ester and may undergo hydrolysis at high or low pH. This compound has an imine and may undergo hydrolysis. This compound contains an acetal/aminal-like group ( X-CH(R)-Y where X, Y are N, S, or O) that may be acid/base labile, releasing an aldehyde.

> <s_m_subgroup_title>
glide-dock_Nicaido_neutral_pv1

> <s_m_subgroupid>
glide-dock_Nicaido_neutral_pv1

> <b_m_subgroup_collapsed>
0

$$$$
Cyclacillin
                    3D
 Schrodinger Suite 2022-2.
 46 48  0  0  1  0            999 V2000
  -31.7745  -21.2297  -24.2599 C   0  0  0  0  0  0
  -30.7170  -20.7404  -23.2480 C   0  0  0  0  0  0
  -29.5404  -21.7484  -22.9411 C   0  0  2  0  0  0
  -28.3398  -21.0287  -23.3208 N   0  0  0  0  0  0
  -28.2501  -19.5855  -23.3538 C   0  0  2  0  0  0
  -29.9285  -19.2274  -23.9405 S   0  0  0  0  0  0
  -27.0023  -19.7331  -24.2413 C   0  0  2  0  0  0
  -27.1897  -21.2466  -24.0447 C   0  0  0  0  0  0
  -26.6306  -22.2586  -24.4134 O   0  0  0  0  0  0
  -25.7856  -19.1506  -23.6519 N   0  0  0  0  0  0
  -25.2247  -19.4252  -22.4504 C   0  0  0  0  0  0
  -24.0737  -18.5190  -21.9596 C   0  0  0  0  0  0
  -23.9885  -18.5254  -20.4051 C   0  0  0  0  0  0
  -22.7340  -17.8191  -19.8585 C   0  0  0  0  0  0
  -21.4576  -18.4197  -20.4598 C   0  0  0  0  0  0
  -21.4913  -18.3476  -21.9911 C   0  0  0  0  0  0
  -22.7433  -19.0350  -22.5675 C   0  0  0  0  0  0
  -24.3689  -17.1496  -22.4134 N   0  3  0  0  0  0
  -25.6076  -20.3479  -21.7324 O   0  0  0  0  0  0
  -29.5907  -23.1496  -23.5832 C   0  0  0  0  0  0
  -29.5662  -24.1386  -22.8134 O   0  5  0  0  0  0
  -29.5679  -23.2307  -24.8336 O   0  0  0  0  0  0
  -31.4334  -20.3600  -21.9409 C   0  0  0  0  0  0
  -32.2618  -22.1440  -23.9206 H   0  0  0  0  0  0
  -31.3392  -21.4187  -25.2404 H   0  0  0  0  0  0
  -32.5550  -20.4809  -24.4000 H   0  0  0  0  0  0
  -29.4653  -21.8993  -21.8626 H   0  0  0  0  0  0
  -28.0754  -19.1495  -22.3684 H   0  0  0  0  0  0
  -27.1885  -19.3887  -25.2590 H   0  0  0  0  0  0
  -25.3764  -18.4176  -24.2200 H   0  0  0  0  0  0
  -24.8837  -18.0758  -19.9708 H   0  0  0  0  0  0
  -23.9642  -19.5510  -20.0328 H   0  0  0  0  0  0
  -22.7689  -16.7506  -20.0700 H   0  0  0  0  0  0
  -22.7065  -17.9096  -18.7718 H   0  0  0  0  0  0
  -20.5827  -17.8895  -20.0815 H   0  0  0  0  0  0
  -21.3519  -19.4574  -20.1406 H   0  0  0  0  0  0
  -21.4587  -17.3041  -22.3025 H   0  0  0  0  0  0
  -20.5940  -18.8109  -22.4024 H   0  0  0  0  0  0
  -22.6546  -20.1078  -22.3850 H   0  0  0  0  0  0
  -22.7501  -18.9183  -23.6529 H   0  0  0  0  0  0
  -23.6753  -16.5054  -22.0655 H   0  0  0  0  0  0
  -24.3689  -17.1214  -23.4283 H   0  0  0  0  0  0
  -31.9021  -21.2276  -21.4751 H   0  0  0  0  0  0
  -30.7376  -19.9388  -21.2139 H   0  0  0  0  0  0
  -32.2111  -19.6146  -22.1102 H   0  0  0  0  0  0
  -25.2970  -16.8856  -22.0992 H   0  0  0  0  0  0
  1  2  1  0  0  0
  1 24  1  0  0  0
  1 25  1  0  0  0
  1 26  1  0  0  0
  2  6  1  0  0  0
  2  3  1  0  0  0
  2 23  1  0  0  0
  3  4  1  0  0  0
  3 20  1  0  0  0
  3 27  1  0  0  0
  4  8  1  0  0  0
  4  5  1  0  0  0
  5  6  1  0  0  0
  5  7  1  0  0  0
  5 28  1  0  0  0
  7  8  1  0  0  0
  7 10  1  0  0  0
  7 29  1  0  0  0
  8  9  2  0  0  0
 10 11  1  0  0  0
 10 30  1  0  0  0
 11 12  1  0  0  0
 11 19  2  0  0  0
 12 17  1  0  0  0
 12 13  1  0  0  0
 12 18  1  0  0  0
 13 14  1  0  0  0
 13 31  1  0  0  0
 13 32  1  0  0  0
 14 15  1  0  0  0
 14 33  1  0  0  0
 14 34  1  0  0  0
 15 16  1  0  0  0
 15 35  1  0  0  0
 15 36  1  0  0  0
 16 17  1  0  0  0
 16 37  1  0  0  0
 16 38  1  0  0  0
 17 39  1  0  0  0
 17 40  1  0  0  0
 18 41  1  0  0  0
 18 42  1  0  0  0
 18 46  1  0  0  0
 20 21  1  0  0  0
 20 22  2  0  0  0
 23 43  1  0  0  0
 23 44  1  0  0  0
 23 45  1  0  0  0
M  CHG  2  18   1  21  -1
M  END
> <s_m_entry_id>
27328

> <s_m_entry_name>
data_maestro.19

> <s_m_Source_Path>
C:\Users\olshana1\Git\GramNeg-Accumulation\Gram Negative Permeation - OmpF

> <s_m_Source_File>
data_maestro.csv

> <i_m_Source_File_Index>
19

> <s_m_job_name>
glide-dock_Nicaido_neutral

> <s_i_glide_gridfile>
3POX-grid

> <i_i_glide_lignum>
24

> <i_i_glide_rotatable_bonds>
4

> <r_i_docking_score>
-5.45404277475247

> <r_i_glide_ligand_efficiency>
-0.237132294554455

> <r_i_glide_ligand_efficiency_sa>
-0.674372701635019

> <r_i_glide_ligand_efficiency_ln>
-1.31883699746079

> <r_i_glide_gscore>
-5.65734277475247

> <r_i_glide_lipo>
-0.133497739326073

> <r_i_glide_hbond>
-0.912029136938852

> <r_i_glide_metal>
0

> <r_i_glide_rewards>
-1.07885254065459

> <r_i_glide_evdw>
-19.8588886260986

> <r_i_glide_ecoul>
-17.1623249053955

> <r_i_glide_erotb>
0.487675558125352

> <r_i_glide_esite>
-0.453345748844051

> <r_i_glide_emodel>
-66.7223440953794

> <r_i_glide_energy>
-37.0212135314941

> <r_i_glide_einternal>
5.16127252578735

> <i_i_glide_confnum>
19

> <i_i_glide_posenum>
233

> <r_i_glide_eff_state_penalty>
0.2033

> <r_glide_res:A132_vdw>
-0.821178437219302

> <r_glide_res:A132_coul>
-18.4109569304088

> <r_glide_res:A132_hbond>
0

> <r_glide_res:A132_dist>
3.09450619804936

> <r_glide_res:A132_Eint>
-19.2321353676281

> <r_glide_res:A117_vdw>
-4.90247659866533

> <r_glide_res:A117_coul>
-39.5564489743017

> <r_glide_res:A117_hbond>
-0.36

> <r_glide_res:A117_dist>
1.97721645089745

> <r_glide_res:A117_Eint>
-44.818925572967

> <r_glide_res:A113_vdw>
-1.7726296860898

> <r_glide_res:A113_coul>
6.05965818557521

> <r_glide_res:A113_hbond>
0

> <r_glide_res:A113_dist>
2.56201132206783

> <r_glide_res:A113_Eint>
4.28702849948541

> <r_glide_res:A82_vdw>
0.995906222920827

> <r_glide_res:A82_coul>
-37.6233154414376

> <r_glide_res:A82_hbond>
-0.2

> <r_glide_res:A82_dist>
1.69732445294873

> <r_glide_res:A82_Eint>
-36.8274092185167

> <r_glide_res:A42_vdw>
0.202426611935479

> <r_glide_res:A42_coul>
-31.2749456161826

> <r_glide_res:A42_hbond>
-0.352029136938852

> <r_glide_res:A42_dist>
1.87069722062861

> <r_glide_res:A42_Eint>
-31.424548141186

> <r_glide_res:A16_vdw>
-0.590805984795085

> <r_glide_res:A16_coul>
-12.2971652687952

> <r_glide_res:A16_hbond>
0

> <r_glide_res:A16_dist>
3.07428225895631

> <r_glide_res:A16_Eint>
-12.8879712535903

> <s_m_source_file>
ligprep_Nicaido_neutral.maegz

> <i_m_source_file_index>
19

> <i_lp_mmshare_version>
58128

> <i_f3d_flags>
0

> <s_lp_Force_Field>
S-OPLS

> <r_lp_Energy>
30.580191

> <b_lp_Chiralities_Consistent>
1

> <s_lp_Variant>
Cyclacillin-1

> <s_epik_input>
W09IXUMoPU8pW0NAQEhdMUMoW0NIM10pKFtDSDNdKVNbQ0BASF0oTjEyKVtDQEhdKEMyPU8pW05IXUMoPU8pQzMoW05IMl0pW0NIMl1bQ0gyXVtDSDJdW0NIMl1bQ0gyXTM=

> <s_epik_cmdline>
J2VwaWtfcHl0aG9uJywgJy1waHQnLCAnMC4wJywgJy1waCcsICc3LjQnLCAnLW50JywgJy1tYScsICc1MDAnLCAnLWltYWUnLCAnPGluZmlsZS5tYWU+JywgJy1vbWFlJywgJzxvdXRmaWxlLm1hZT4n

> <r_epik_Ionization_Penalty>
  0.2033

> <r_epik_Ionization_Penalty_Charging>
  0.2033

> <r_epik_Ionization_Penalty_Neutral>
  0.0000

> <r_epik_State_Penalty>
  0.2033

> <r_epik_Charging_Adjusted_Penalty>
0.406545099244061

> <i_epik_Tot_Q>
0

> <i_epik_Tot_abs_Q>
2

> <s_epik_Chemistry_Notes>
This compound contains an acetal/aminal-like group ( X-CH(R)-Y where X, Y are N, S, or O) that may be acid/base labile, releasing an aldehyde.

> <s_m_subgroup_title>
glide-dock_Nicaido_neutral_pv1

> <s_m_subgroupid>
glide-dock_Nicaido_neutral_pv1

> <b_m_subgroup_collapsed>
0

$$$$
Cefoperazone
                    3D
 Schrodinger Suite 2022-2.
 70 74  0  0  1  0            999 V2000
  -37.9416  -25.9950  -19.4859 C   0  0  0  0  0  0
  -36.9095  -24.8724  -19.6700 C   0  0  0  0  0  0
  -36.6639  -24.5936  -21.0875 N   0  0  0  0  0  0
  -37.3817  -23.4470  -21.6421 C   0  0  0  0  0  0
  -37.6647  -23.6501  -23.1378 C   0  0  0  0  0  0
  -36.4417  -23.9962  -23.8975 N   0  0  0  0  0  0
  -35.5350  -24.8512  -23.3038 C   0  0  0  0  0  0
  -35.7956  -25.3182  -21.8299 C   0  0  0  0  0  0
  -35.1922  -26.3053  -21.4014 O   0  0  0  0  0  0
  -34.5110  -25.2943  -23.8426 O   0  0  0  0  0  0
  -36.3321  -23.4432  -25.1517 C   0  0  0  0  0  0
  -35.1355  -23.5451  -25.7568 N   0  0  0  0  0  0
  -34.7230  -22.9841  -27.0465 C   0  0  2  0  0  0
  -33.9445  -24.0230  -27.8117 C   0  0  0  0  0  0
  -33.9419  -24.0158  -29.2280 C   0  0  0  0  0  0
  -33.1570  -24.9211  -29.9716 C   0  0  0  0  0  0
  -32.3724  -25.8816  -29.3076 C   0  0  0  0  0  0
  -32.3824  -25.9360  -27.9061 C   0  0  0  0  0  0
  -33.1510  -25.0128  -27.1728 C   0  0  0  0  0  0
  -31.5941  -26.7505  -30.0130 O   0  0  0  0  0  0
  -33.6872  -21.8560  -26.8585 C   0  0  0  0  0  0
  -33.3209  -21.5622  -25.6038 N   0  0  0  0  0  0
  -32.1095  -20.8328  -25.2602 C   0  0  1  0  0  0
  -31.7673  -20.9824  -23.7700 C   0  0  1  0  0  0
  -30.4697  -21.4668  -24.1956 N   0  0  0  0  0  0
  -30.8421  -21.6859  -25.5054 C   0  0  0  0  0  0
  -30.3707  -22.3447  -26.4107 O   0  0  0  0  0  0
  -29.4795  -21.8348  -23.2702 C   0  0  0  0  0  0
  -28.4080  -22.8349  -23.7973 C   0  0  0  0  0  0
  -27.7647  -22.4846  -24.8133 O   0  5  0  0  0  0
  -28.3642  -23.9450  -23.2134 O   0  0  0  0  0  0
  -29.4409  -21.3329  -22.0085 C   0  0  0  0  0  0
  -30.5072  -20.3903  -21.4458 C   0  0  0  0  0  0
  -31.5100  -19.5472  -22.6992 S   0  0  0  0  0  0
  -28.3386  -21.6615  -21.0121 C   0  0  0  0  0  0
  -28.7677  -23.0232  -19.8950 S   0  0  0  0  0  0
  -27.1986  -23.2332  -19.1276 C   0  0  0  0  0  0
  -26.4837  -24.3481  -19.2130 N   0  0  0  0  0  0
  -25.3421  -24.0689  -18.4860 N   0  0  0  0  0  0
  -25.3736  -22.8582  -18.0080 N   0  0  0  0  0  0
  -26.5525  -22.3105  -18.3985 N   0  0  0  0  0  0
  -26.8891  -20.9518  -18.0223 C   0  0  0  0  0  0
  -33.1711  -21.3042  -27.8322 O   0  0  0  0  0  0
  -37.2496  -22.8285  -25.6980 O   0  0  0  0  0  0
  -38.1065  -26.1999  -18.4277 H   0  0  0  0  0  0
  -37.6113  -26.9228  -19.9521 H   0  0  0  0  0  0
  -38.9023  -25.7213  -19.9245 H   0  0  0  0  0  0
  -37.2508  -23.9688  -19.1621 H   0  0  0  0  0  0
  -35.9745  -25.1438  -19.1800 H   0  0  0  0  0  0
  -38.3259  -23.2932  -21.1135 H   0  0  0  0  0  0
  -36.7821  -22.5481  -21.4842 H   0  0  0  0  0  0
  -38.3948  -24.4484  -23.2763 H   0  0  0  0  0  0
  -38.1486  -22.7335  -23.4847 H   0  0  0  0  0  0
  -34.4517  -24.1163  -25.2740 H   0  0  0  0  0  0
  -35.5767  -22.6199  -27.6264 H   0  0  0  0  0  0
  -34.5283  -23.2789  -29.7587 H   0  0  0  0  0  0
  -33.1592  -24.8729  -31.0515 H   0  0  0  0  0  0
  -31.8056  -26.6832  -27.3794 H   0  0  0  0  0  0
  -33.1059  -25.0702  -26.0978 H   0  0  0  0  0  0
  -31.2965  -27.4753  -29.4813 H   0  0  0  0  0  0
  -33.8170  -22.0170  -24.8535 H   0  0  0  0  0  0
  -32.0698  -19.8036  -25.6200 H   0  0  0  0  0  0
  -32.3289  -21.7671  -23.2574 H   0  0  0  0  0  0
  -31.1722  -20.9773  -20.8135 H   0  0  0  0  0  0
  -30.0476  -19.6253  -20.8157 H   0  0  0  0  0  0
  -27.4004  -21.8958  -21.5157 H   0  0  0  0  0  0
  -28.1360  -20.7624  -20.4355 H   0  0  0  0  0  0
  -27.9294  -20.8987  -17.6999 H   0  0  0  0  0  0
  -26.2478  -20.6191  -17.2121 H   0  0  0  0  0  0
  -26.7190  -20.2739  -18.8549 H   0  0  0  0  0  0
  1  2  1  0  0  0
  1 45  1  0  0  0
  1 46  1  0  0  0
  1 47  1  0  0  0
  2  3  1  0  0  0
  2 48  1  0  0  0
  2 49  1  0  0  0
  3  8  1  0  0  0
  3  4  1  0  0  0
  4  5  1  0  0  0
  4 50  1  0  0  0
  4 51  1  0  0  0
  5  6  1  0  0  0
  5 52  1  0  0  0
  5 53  1  0  0  0
  6  7  1  0  0  0
  6 11  1  0  0  0
  7  8  1  0  0  0
  7 10  2  0  0  0
  8  9  2  0  0  0
 11 12  1  0  0  0
 11 44  2  0  0  0
 12 13  1  0  0  0
 12 54  1  0  0  0
 13 14  1  0  0  0
 13 21  1  0  0  0
 13 55  1  0  0  0
 14 19  1  0  0  0
 14 15  2  0  0  0
 15 16  1  0  0  0
 15 56  1  0  0  0
 16 17  2  0  0  0
 16 57  1  0  0  0
 17 18  1  0  0  0
 17 20  1  0  0  0
 18 19  2  0  0  0
 18 58  1  0  0  0
 19 59  1  0  0  0
 20 60  1  0  0  0
 21 22  1  0  0  0
 21 43  2  0  0  0
 22 23  1  0  0  0
 22 61  1  0  0  0
 23 26  1  0  0  0
 23 24  1  0  0  0
 23 62  1  0  0  0
 24 34  1  0  0  0
 24 25  1  0  0  0
 24 63  1  0  0  0
 25 26  1  0  0  0
 25 28  1  0  0  0
 26 27  2  0  0  0
 28 29  1  0  0  0
 28 32  2  0  0  0
 29 30  1  0  0  0
 29 31  2  0  0  0
 32 33  1  0  0  0
 32 35  1  0  0  0
 33 34  1  0  0  0
 33 64  1  0  0  0
 33 65  1  0  0  0
 35 36  1  0  0  0
 35 66  1  0  0  0
 35 67  1  0  0  0
 36 37  1  0  0  0
 37 41  1  0  0  0
 37 38  2  0  0  0
 38 39  1  0  0  0
 39 40  2  0  0  0
 40 41  1  0  0  0
 41 42  1  0  0  0
 42 68  1  0  0  0
 42 69  1  0  0  0
 42 70  1  0  0  0
M  CHG  1  30  -1
M  END
> <s_m_entry_id>
27329

> <s_m_entry_name>
data_maestro.8

> <s_m_Source_Path>
C:\Users\olshana1\Git\GramNeg-Accumulation\Gram Negative Permeation - OmpF

> <s_m_Source_File>
data_maestro.csv

> <i_m_Source_File_Index>
8

> <s_m_job_name>
glide-dock_Nicaido_neutral

> <s_i_glide_gridfile>
3POX-grid

> <i_i_glide_lignum>
11

> <i_i_glide_rotatable_bonds>
13

> <r_i_docking_score>
-5.44800543615519

> <r_i_glide_ligand_efficiency>
-0.123818305367163

> <r_i_glide_ligand_efficiency_sa>
-0.437121747684475

> <r_i_glide_ligand_efficiency_ln>
-1.13875198372796

> <r_i_glide_gscore>
-5.44800543615519

> <r_i_glide_lipo>
-0.00871921557798333

> <r_i_glide_hbond>
-0.887499156808017

> <r_i_glide_metal>
0

> <r_i_glide_rewards>
0.0215287912745068

> <r_i_glide_evdw>
-33.2380256652832

> <r_i_glide_ecoul>
-17.3725547790527

> <r_i_glide_erotb>
0.362700252817045

> <r_i_glide_esite>
-0.668231607738666

> <r_i_glide_emodel>
-80.3826763576982

> <r_i_glide_energy>
-50.6105804443359

> <r_i_glide_einternal>
7.6084246635437

> <i_i_glide_confnum>
215

> <i_i_glide_posenum>
315

> <r_i_glide_eff_state_penalty>
0

> <r_glide_res:A132_vdw>
-2.0128750943768

> <r_glide_res:A132_coul>
-36.5537195035841

> <r_glide_res:A132_hbond>
0

> <r_glide_res:A132_dist>
2.24766024958282

> <r_glide_res:A132_Eint>
-38.5665945979609

> <r_glide_res:A117_vdw>
-1.03970081340512

> <r_glide_res:A117_coul>
24.0077623611041

> <r_glide_res:A117_hbond>
0

> <r_glide_res:A117_dist>
4.36571953260891

> <r_glide_res:A117_Eint>
22.968061547699

> <r_glide_res:A113_vdw>
-2.56810905270826

> <r_glide_res:A113_coul>
15.1682458639542

> <r_glide_res:A113_hbond>
0

> <r_glide_res:A113_dist>
2.329987415757

> <r_glide_res:A113_Eint>
12.600136811246

> <r_glide_res:A82_vdw>
1.32395691513088

> <r_glide_res:A82_coul>
-49.2995679026566

> <r_glide_res:A82_hbond>
-0.277131176979219

> <r_glide_res:A82_dist>
1.81595297253324

> <r_glide_res:A82_Eint>
-48.2527421645049

> <r_glide_res:A42_vdw>
0.199900892535662

> <r_glide_res:A42_coul>
-55.4460219970607

> <r_glide_res:A42_hbond>
-0.322194832291152

> <r_glide_res:A42_dist>
1.70559840807027

> <r_glide_res:A42_Eint>
-55.5683159368162

> <r_glide_res:A16_vdw>
-1.43374265832806

> <r_glide_res:A16_coul>
-44.445505221384

> <r_glide_res:A16_hbond>
-0.288173147537646

> <r_glide_res:A16_dist>
1.73128875394631

> <r_glide_res:A16_Eint>
-46.1674210272497

> <s_m_source_file>
ligprep_Nicaido_neutral.maegz

> <i_m_source_file_index>
8

> <i_lp_mmshare_version>
58128

> <i_f3d_flags>
0

> <s_lp_Force_Field>
S-OPLS

> <r_lp_Energy>
85.319288

> <b_lp_Chiralities_Consistent>
1

> <s_lp_Variant>
Cefoperazone-1

> <s_epik_input>
W0NIM11bQ0gyXU4xW0NIMl1bQ0gyXU4oQyg9TylDMT1PKUMoPU8pW05IXVtDQEhdKGMyW2NIXVtjSF1jKFtPSF0pW2NIXVtjSF0yKUMoPU8pW05IXVtDQEBIXTNDKD1PKU4oW0NASF0zNClDKEMoPU8pW09IXSk9QyhbQ0gyXVM0KVtDSDJdU2M1bm5ubjVbQ0gzXQ==

> <s_epik_cmdline>
J2VwaWtfcHl0aG9uJywgJy1waHQnLCAnMC4wJywgJy1waCcsICc3LjQnLCAnLW50JywgJy1tYScsICc1MDAnLCAnLWltYWUnLCAnPGluZmlsZS5tYWU+JywgJy1vbWFlJywgJzxvdXRmaWxlLm1hZT4n

> <r_lp_tautomer_probability>
1

> <r_epik_Ionization_Penalty>
  0.0158

> <r_epik_Ionization_Penalty_Charging>
  0.0000

> <r_epik_Ionization_Penalty_Neutral>
  0.0158

> <r_epik_State_Penalty>
  0.0000

> <r_epik_Charging_Adjusted_Penalty>
8.23416745038905e-06

> <i_epik_Tot_Q>
-1

> <i_epik_Tot_abs_Q>
1

> <s_epik_Chemistry_Notes>
This compound contains an acetal/aminal-like group ( X-CH(R)-Y where X, Y are N, S, or O) that may be acid/base labile, releasing an aldehyde.

> <s_m_subgroup_title>
glide-dock_Nicaido_neutral_pv1

> <s_m_subgroupid>
glide-dock_Nicaido_neutral_pv1

> <b_m_subgroup_collapsed>
0

$$$$
Cefsulodin
                    3D
 Schrodinger Suite 2022-2.
 55 58  0  0  1  0            999 V2000
  -25.1602  -23.4438  -24.0137 O   0  0  0  0  0  0
  -25.2055  -22.4875  -23.2686 C   0  0  0  0  0  0
  -24.2034  -21.5646  -22.5264 C   0  0  2  0  0  0
  -23.3698  -22.1782  -21.4748 N   0  0  0  0  0  0
  -23.6020  -23.2540  -20.6920 C   0  0  0  0  0  0
  -22.5069  -23.5659  -19.6539 C   0  0  2  0  0  0
  -22.4582  -25.3673  -19.2130 S   0  0  0  0  0  0
  -22.5933  -26.0824  -20.4952 O   0  0  0  0  0  0
  -23.5898  -25.5495  -18.2900 O   0  5  0  0  0  0
  -21.1455  -25.5517  -18.5698 O   0  0  0  0  0  0
  -22.6481  -22.7156  -18.3885 C   0  0  0  0  0  0
  -21.5189  -22.0340  -17.8833 C   0  0  0  0  0  0
  -21.6146  -21.2719  -16.7028 C   0  0  0  0  0  0
  -22.8395  -21.1854  -16.0133 C   0  0  0  0  0  0
  -23.9720  -21.8572  -16.5100 C   0  0  0  0  0  0
  -23.8779  -22.6152  -17.6930 C   0  0  0  0  0  0
  -24.6208  -23.9464  -20.7653 O   0  0  0  0  0  0
  -25.4486  -20.8224  -21.9955 C   0  0  1  0  0  0
  -26.2559  -21.8637  -22.6116 N   0  0  0  0  0  0
  -27.6248  -22.0605  -22.3626 C   0  0  0  0  0  0
  -28.3339  -23.0626  -23.3393 C   0  0  0  0  0  0
  -28.8532  -24.0718  -22.8133 O   0  5  0  0  0  0
  -28.2930  -22.7917  -24.5635 O   0  0  0  0  0  0
  -28.2849  -21.4194  -21.3598 C   0  0  0  0  0  0
  -29.7648  -21.6370  -21.0463 C   0  0  0  0  0  0
  -30.6185  -20.7803  -21.8857 N   0  3  0  0  0  0
  -31.3259  -21.3512  -22.8927 C   0  0  0  0  0  0
  -32.1331  -20.5694  -23.7393 C   0  0  0  0  0  0
  -32.2064  -19.1739  -23.5414 C   0  0  0  0  0  0
  -33.0430  -18.3362  -24.4692 C   0  0  0  0  0  0
  -33.4410  -17.1496  -24.0136 N   0  0  0  0  0  0
  -33.3865  -18.7602  -25.5712 O   0  0  0  0  0  0
  -31.4546  -18.6104  -22.4815 C   0  0  0  0  0  0
  -30.6768  -19.4450  -21.6547 C   0  0  0  0  0  0
  -27.6216  -20.4167  -20.4151 C   0  0  0  0  0  0
  -25.8481  -20.6738  -20.2264 S   0  0  0  0  0  0
  -23.6230  -20.9288  -23.1959 H   0  0  0  0  0  0
  -22.5235  -21.6685  -21.2699 H   0  0  0  0  0  0
  -21.5456  -23.3674  -20.1228 H   0  0  0  0  0  0
  -20.5684  -22.0981  -18.3911 H   0  0  0  0  0  0
  -20.7477  -20.7522  -16.3212 H   0  0  0  0  0  0
  -22.9126  -20.6033  -15.1053 H   0  0  0  0  0  0
  -24.9139  -21.7914  -15.9839 H   0  0  0  0  0  0
  -24.7553  -23.1299  -18.0544 H   0  0  0  0  0  0
  -25.6120  -19.8675  -22.5005 H   0  0  0  0  0  0
  -30.0742  -22.6752  -21.1636 H   0  0  0  0  0  0
  -29.9688  -21.4035  -20.0135 H   0  0  0  0  0  0
  -31.2282  -22.4206  -23.0105 H   0  0  0  0  0  0
  -32.6877  -21.0391  -24.5390 H   0  0  0  0  0  0
  -33.0981  -16.7903  -23.1309 H   0  0  0  0  0  0
  -34.0220  -16.5693  -24.5986 H   0  0  0  0  0  0
  -31.4538  -17.5496  -22.2841 H   0  0  0  0  0  0
  -30.1014  -19.0719  -20.8193 H   0  0  0  0  0  0
  -27.7881  -19.4068  -20.7888 H   0  0  0  0  0  0
  -28.0585  -20.4624  -19.4166 H   0  0  0  0  0  0
  1  2  2  0  0  0
  2 19  1  0  0  0
  2  3  1  0  0  0
  3  4  1  0  0  0
  3 18  1  0  0  0
  3 37  1  0  0  0
  4  5  1  0  0  0
  4 38  1  0  0  0
  5  6  1  0  0  0
  5 17  2  0  0  0
  6  7  1  0  0  0
  6 11  1  0  0  0
  6 39  1  0  0  0
  7  8  2  0  0  0
  7  9  1  0  0  0
  7 10  2  0  0  0
 11 16  1  0  0  0
 11 12  2  0  0  0
 12 13  1  0  0  0
 12 40  1  0  0  0
 13 14  2  0  0  0
 13 41  1  0  0  0
 14 15  1  0  0  0
 14 42  1  0  0  0
 15 16  2  0  0  0
 15 43  1  0  0  0
 16 44  1  0  0  0
 18 36  1  0  0  0
 18 19  1  0  0  0
 18 45  1  0  0  0
 19 20  1  0  0  0
 20 21  1  0  0  0
 20 24  2  0  0  0
 21 22  1  0  0  0
 21 23  2  0  0  0
 24 25  1  0  0  0
 24 35  1  0  0  0
 25 26  1  0  0  0
 25 46  1  0  0  0
 25 47  1  0  0  0
 26 34  1  0  0  0
 26 27  2  0  0  0
 27 28  1  0  0  0
 27 48  1  0  0  0
 28 29  2  0  0  0
 28 49  1  0  0  0
 29 30  1  0  0  0
 29 33  1  0  0  0
 30 31  1  0  0  0
 30 32  2  0  0  0
 31 50  1  0  0  0
 31 51  1  0  0  0
 33 34  2  0  0  0
 33 52  1  0  0  0
 34 53  1  0  0  0
 35 36  1  0  0  0
 35 54  1  0  0  0
 35 55  1  0  0  0
M  CHG  3   9  -1  22  -1  26   1
M  END
> <s_m_entry_id>
27330

> <s_m_entry_name>
data_maestro.27

> <s_m_Source_Path>
C:\Users\olshana1\Git\GramNeg-Accumulation\Gram Negative Permeation - OmpF

> <s_m_Source_File>
data_maestro.csv

> <i_m_Source_File_Index>
27

> <s_m_job_name>
glide-dock_Nicaido_neutral

> <s_i_glide_gridfile>
3POX-grid

> <i_i_glide_lignum>
34

> <i_i_glide_rotatable_bonds>
9

> <r_i_docking_score>
-5.44697864269715

> <r_i_glide_ligand_efficiency>
-0.151304962297143

> <r_i_glide_ligand_efficiency_sa>
-0.499597977305137

> <r_i_glide_ligand_efficiency_ln>
-1.18838357948007

> <r_i_glide_gscore>
-5.44697864269715

> <r_i_glide_lipo>
0

> <r_i_glide_hbond>
-0.979852218594427

> <r_i_glide_metal>
0

> <r_i_glide_rewards>
1.06204851305222e-06

> <r_i_glide_evdw>
-26.1719207763672

> <r_i_glide_ecoul>
-19.9928703308105

> <r_i_glide_erotb>
0.364921022123239

> <r_i_glide_esite>
-0.524521919834529

> <r_i_glide_emodel>
-82.5841673564325

> <r_i_glide_energy>
-46.1647911071777

> <r_i_glide_einternal>
9.43147563934326

> <i_i_glide_confnum>
35

> <i_i_glide_posenum>
216

> <r_i_glide_eff_state_penalty>
0

> <r_glide_res:A132_vdw>
-2.76963934724445

> <r_glide_res:A132_coul>
-50.4131789385478

> <r_glide_res:A132_hbond>
-0.099092473078824

> <r_glide_res:A132_dist>
2.22530330222753

> <r_glide_res:A132_Eint>
-53.2819107588711

> <r_glide_res:A117_vdw>
-2.27904714169148

> <r_glide_res:A117_coul>
10.7993271504892

> <r_glide_res:A117_hbond>
0

> <r_glide_res:A117_dist>
3.23641499290351

> <r_glide_res:A117_Eint>
8.52028000879773

> <r_glide_res:A113_vdw>
-2.72099934793071

> <r_glide_res:A113_coul>
-4.8460131269274

> <r_glide_res:A113_hbond>
0

> <r_glide_res:A113_dist>
2.23803046987519

> <r_glide_res:A113_Eint>
-7.56701247485811

> <r_glide_res:A82_vdw>
-0.441324443488578

> <r_glide_res:A82_coul>
-50.6350729037847

> <r_glide_res:A82_hbond>
-0.29759726267084

> <r_glide_res:A82_dist>
1.86576946669503

> <r_glide_res:A82_Eint>
-51.3739946099441

> <r_glide_res:A42_vdw>
-1.51217035463439

> <r_glide_res:A42_coul>
-41.6456414600595

> <r_glide_res:A42_hbond>
-0.219944701622388

> <r_glide_res:A42_dist>
2.15920529899448

> <r_glide_res:A42_Eint>
-43.3777565163162

> <r_glide_res:A16_vdw>
-0.434676793676265

> <r_glide_res:A16_coul>
-19.2431530035833

> <r_glide_res:A16_hbond>
0

> <r_glide_res:A16_dist>
4.30938910843417

> <r_glide_res:A16_Eint>
-19.6778297972596

> <s_m_source_file>
ligprep_Nicaido_neutral.maegz

> <i_m_source_file_index>
27

> <i_lp_mmshare_version>
58128

> <i_f3d_flags>
0

> <s_lp_Force_Field>
S-OPLS

> <r_lp_Energy>
54.611133

> <b_lp_Chiralities_Consistent>
1

> <s_lp_Variant>
Cefsulodin-1

> <s_epik_input>
W05IMl1DKD1PKWMoW2NIXVtjSF0xKVtjSF1bY0hdW24rXTFbQ0gyXUMoW0NIMl1TMik9QyhDKD1PKVtPSF0pTihbQ0BASF0yMylDKD1PKVtDQEBIXTNbTkhdQyg9TylbQ0BIXShTKD1PKSg9TylbT0hdKWM0W2NIXVtjSF1bY0hdW2NIXVtjSF00

> <s_epik_cmdline>
J2VwaWtfcHl0aG9uJywgJy1waHQnLCAnMC4wJywgJy1waCcsICc3LjQnLCAnLW50JywgJy1tYScsICc1MDAnLCAnLWltYWUnLCAnPGluZmlsZS5tYWU+JywgJy1vbWFlJywgJzxvdXRmaWxlLm1hZT4n

> <r_lp_tautomer_probability>
1

> <r_epik_Ionization_Penalty>
  0.0010

> <r_epik_Ionization_Penalty_Charging>
  0.0000

> <r_epik_Ionization_Penalty_Neutral>
  0.0010

> <r_epik_State_Penalty>
  0.0000

> <r_epik_Charging_Adjusted_Penalty>
1.59615623662622e-05

> <i_epik_Tot_Q>
-1

> <i_epik_Tot_abs_Q>
3

> <s_epik_Chemistry_Notes>
This compound contains an acetal/aminal-like group ( X-CH(R)-Y where X, Y are N, S, or O) that may be acid/base labile, releasing an aldehyde.

> <s_m_subgroup_title>
glide-dock_Nicaido_neutral_pv1

> <s_m_subgroupid>
glide-dock_Nicaido_neutral_pv1

> <b_m_subgroup_collapsed>
0

$$$$
Cefmetazole
                    3D
 Schrodinger Suite 2022-2.
 46 48  0  0  1  0            999 V2000
  -34.4516  -23.2162  -24.2046 C   0  0  0  0  0  0
  -33.3957  -23.3937  -25.1813 N   0  0  0  0  0  0
  -32.8198  -22.5492  -26.0499 C   0  0  0  0  0  0
  -33.2311  -20.8358  -26.2064 S   0  0  0  0  0  0
  -31.7761  -20.0323  -25.4331 C   0  0  0  0  0  0
  -31.2185  -20.7721  -24.2140 C   0  0  0  0  0  0
  -30.0434  -21.4796  -24.1564 C   0  0  0  0  0  0
  -29.6371  -22.1234  -22.9493 N   0  0  0  0  0  0
  -30.2921  -21.8957  -21.6657 C   0  0  2  0  0  0
  -29.4709  -23.0648  -21.0943 C   0  0  1  0  0  0
  -30.0993  -24.3493  -21.0399 O   0  0  0  0  0  0
  -30.8861  -24.5873  -19.8848 C   0  0  0  0  0  0
  -28.6654  -22.9756  -22.4157 C   0  0  0  0  0  0
  -27.6520  -23.4868  -22.8472 O   0  0  0  0  0  0
  -28.7663  -22.6654  -19.8718 N   0  0  0  0  0  0
  -27.6874  -23.2619  -19.3437 C   0  0  0  0  0  0
  -27.1033  -22.6451  -18.0712 C   0  0  0  0  0  0
  -25.2948  -22.7966  -18.0133 S   0  0  0  0  0  0
  -24.9346  -22.0501  -16.4043 C   0  0  0  0  0  0
  -23.5037  -22.2107  -16.1141 C   0  0  0  0  0  0
  -22.3753  -22.3447  -15.8951 N   0  0  0  0  0  0
  -27.1700  -24.2666  -19.8399 O   0  0  0  0  0  0
  -32.0843  -21.9797  -21.8786 S   0  0  0  0  0  0
  -32.1580  -20.5996  -23.0223 C   0  0  0  0  0  0
  -29.0670  -21.6329  -25.4115 C   0  0  0  0  0  0
  -29.5648  -21.5497  -26.5537 O   0  5  0  0  0  0
  -27.8755  -21.9495  -25.2086 O   0  0  0  0  0  0
  -31.9517  -23.2004  -26.8136 N   0  0  0  0  0  0
  -31.9706  -24.4910  -26.3252 N   0  0  0  0  0  0
  -32.8288  -24.6131  -25.3569 N   0  0  0  0  0  0
  -34.1658  -23.6807  -23.2590 H   0  0  0  0  0  0
  -34.6476  -22.1593  -24.0346 H   0  0  0  0  0  0
  -35.3643  -23.6887  -24.5666 H   0  0  0  0  0  0
  -32.0981  -19.0452  -25.0982 H   0  0  0  0  0  0
  -31.0359  -19.8012  -26.1916 H   0  0  0  0  0  0
  -30.0011  -20.9235  -21.2584 H   0  0  0  0  0  0
  -31.4836  -25.4888  -20.0136 H   0  0  0  0  0  0
  -30.2715  -24.7214  -18.9946 H   0  0  0  0  0  0
  -31.5651  -23.7581  -19.7096 H   0  0  0  0  0  0
  -29.1974  -21.9050  -19.3549 H   0  0  0  0  0  0
  -27.5317  -23.1512  -17.2068 H   0  0  0  0  0  0
  -27.3743  -21.5910  -17.9981 H   0  0  0  0  0  0
  -25.5110  -22.5383  -15.6184 H   0  0  0  0  0  0
  -25.1844  -20.9893  -16.4132 H   0  0  0  0  0  0
  -31.8961  -19.6802  -22.4970 H   0  0  0  0  0  0
  -33.1926  -20.4900  -23.3440 H   0  0  0  0  0  0
  1  2  1  0  0  0
  1 31  1  0  0  0
  1 32  1  0  0  0
  1 33  1  0  0  0
  2 30  1  0  0  0
  2  3  1  0  0  0
  3  4  1  0  0  0
  3 28  2  0  0  0
  4  5  1  0  0  0
  5  6  1  0  0  0
  5 34  1  0  0  0
  5 35  1  0  0  0
  6 24  1  0  0  0
  6  7  2  0  0  0
  7  8  1  0  0  0
  7 25  1  0  0  0
  8 13  1  0  0  0
  8  9  1  0  0  0
  9 10  1  0  0  0
  9 23  1  0  0  0
  9 36  1  0  0  0
 10 11  1  0  0  0
 10 13  1  0  0  0
 10 15  1  0  0  0
 11 12  1  0  0  0
 12 37  1  0  0  0
 12 38  1  0  0  0
 12 39  1  0  0  0
 13 14  2  0  0  0
 15 16  1  0  0  0
 15 40  1  0  0  0
 16 17  1  0  0  0
 16 22  2  0  0  0
 17 18  1  0  0  0
 17 41  1  0  0  0
 17 42  1  0  0  0
 18 19  1  0  0  0
 19 20  1  0  0  0
 19 43  1  0  0  0
 19 44  1  0  0  0
 20 21  3  0  0  0
 23 24  1  0  0  0
 24 45  1  0  0  0
 24 46  1  0  0  0
 25 26  1  0  0  0
 25 27  2  0  0  0
 28 29  1  0  0  0
 29 30  2  0  0  0
M  CHG  1  26  -1
M  END
> <s_m_entry_id>
27331

> <s_m_entry_name>
data_maestro.3

> <s_m_Source_Path>
C:\Users\olshana1\Git\GramNeg-Accumulation\Gram Negative Permeation - OmpF

> <s_m_Source_File>
data_maestro.csv

> <i_m_Source_File_Index>
3

> <s_m_job_name>
glide-dock_Nicaido_neutral

> <s_i_glide_gridfile>
3POX-grid

> <i_i_glide_lignum>
3

> <i_i_glide_rotatable_bonds>
10

> <r_i_docking_score>
-5.44317900468075

> <r_i_glide_ligand_efficiency>
-0.181439300156025

> <r_i_glide_ligand_efficiency_sa>
-0.563774090663151

> <r_i_glide_ligand_efficiency_ln>
-1.23674957804894

> <r_i_glide_gscore>
-5.44317900468075

> <r_i_glide_lipo>
0

> <r_i_glide_hbond>
-0.924094678902132

> <r_i_glide_metal>
0

> <r_i_glide_rewards>
-0.200933470713568

> <r_i_glide_evdw>
-26.1587581634521

> <r_i_glide_ecoul>
-18.9776210784912

> <r_i_glide_erotb>
0.638850535935238

> <r_i_glide_esite>
-0.802420321054002

> <r_i_glide_emodel>
-72.6129803938659

> <r_i_glide_energy>
-45.1363792419434

> <r_i_glide_einternal>
4.78117656707764

> <i_i_glide_confnum>
162

> <i_i_glide_posenum>
91

> <r_i_glide_eff_state_penalty>
0

> <r_glide_res:A132_vdw>
-1.04483564696901

> <r_glide_res:A132_coul>
-34.6891413082204

> <r_glide_res:A132_hbond>
-0.262274308698128

> <r_glide_res:A132_dist>
1.89940404662369

> <r_glide_res:A132_Eint>
-35.9962512638875

> <r_glide_res:A117_vdw>
-0.802572952072712

> <r_glide_res:A117_coul>
26.1687260847713

> <r_glide_res:A117_hbond>
0

> <r_glide_res:A117_dist>
4.93664204731039

> <r_glide_res:A117_Eint>
25.3661531326986

> <r_glide_res:A113_vdw>
-4.32377996402619

> <r_glide_res:A113_coul>
1.84872159499877

> <r_glide_res:A113_hbond>
-0.0252160056655544

> <r_glide_res:A113_dist>
2.37414025814677

> <r_glide_res:A113_Eint>
-2.50027437469297

> <r_glide_res:A82_vdw>
-2.61303871358077

> <r_glide_res:A82_coul>
-42.2709444602607

> <r_glide_res:A82_hbond>
-0.16

> <r_glide_res:A82_dist>
2.0000043619478

> <r_glide_res:A82_Eint>
-45.0439831738415

> <r_glide_res:A42_vdw>
-0.442578215861543

> <r_glide_res:A42_coul>
-57.5686061232263

> <r_glide_res:A42_hbond>
-0.276604364538449

> <r_glide_res:A42_dist>
1.75202072817597

> <r_glide_res:A42_Eint>
-58.2877887036263

> <r_glide_res:A16_vdw>
-1.13861914152596

> <r_glide_res:A16_coul>
-51.8585249650227

> <r_glide_res:A16_hbond>
-0.2

> <r_glide_res:A16_dist>
1.77001992310194

> <r_glide_res:A16_Eint>
-53.1971441065487

> <s_m_source_file>
ligprep_Nicaido_neutral.maegz

> <i_m_source_file_index>
3

> <i_lp_mmshare_version>
58128

> <i_f3d_flags>
0

> <s_lp_Force_Field>
S-OPLS

> <r_lp_Energy>
32.161431

> <b_lp_Chiralities_Consistent>
1

> <s_lp_Variant>
Cefmetazole-1

> <s_epik_input>
bjFubmMobjFbQ0gzXSlTW0NIMl1DKD1DMkMoPU8pW09IXSlbQ0gyXVNbQ0BIXShOMjMpW0NAXShDMz1PKShPW0NIM10pW05IXUMoPU8pW0NIMl1TW0NIMl1DI04=

> <s_epik_cmdline>
J2VwaWtfcHl0aG9uJywgJy1waHQnLCAnMC4wJywgJy1waCcsICc3LjQnLCAnLW50JywgJy1tYScsICc1MDAnLCAnLWltYWUnLCAnPGluZmlsZS5tYWU+JywgJy1vbWFlJywgJzxvdXRmaWxlLm1hZT4n

> <r_lp_tautomer_probability>
1

> <r_epik_Ionization_Penalty>
  0.0000

> <r_epik_Ionization_Penalty_Charging>
  0.0000

> <r_epik_Ionization_Penalty_Neutral>
  0.0000

> <r_epik_State_Penalty>
  0.0000

> <r_epik_Charging_Adjusted_Penalty>
8.27330724987756e-06

> <i_epik_Tot_Q>
-1

> <i_epik_Tot_abs_Q>
1

> <s_epik_Chemistry_Notes>
This compound contains an acetal/aminal-like group ( X-CH(R)-Y where X, Y are N, S, or O) that may be acid/base labile, releasing an aldehyde.

> <s_m_subgroup_title>
glide-dock_Nicaido_neutral_pv1

> <s_m_subgroupid>
glide-dock_Nicaido_neutral_pv1

> <b_m_subgroup_collapsed>
0

$$$$
Ceftazidime
                    3D
 Schrodinger Suite 2022-2.
 58 61  0  0  1  0            999 V2000
  -19.4095  -23.3644  -17.8997 C   0  0  0  0  0  0
  -20.6483  -24.1550  -18.3551 C   0  0  0  0  0  0
  -20.7106  -24.1710  -19.9047 C   0  0  0  0  0  0
  -20.5065  -25.6014  -17.8163 C   0  0  0  0  0  0
  -21.1726  -25.9503  -16.8134 O   0  5  0  0  0  0
  -19.6937  -26.3495  -18.4110 O   0  0  0  0  0  0
  -21.7502  -23.4331  -17.7788 O   0  0  0  0  0  0
  -22.9871  -23.9602  -18.1984 N   0  0  0  0  0  0
  -23.9002  -23.0829  -18.3665 C   0  0  0  0  0  0
  -25.2791  -23.5803  -18.7797 C   0  0  0  0  0  0
  -26.1575  -22.6372  -19.1527 N   0  0  0  0  0  0
  -27.4901  -22.9299  -19.6696 C   0  0  1  0  0  0
  -28.2245  -21.6732  -20.1604 C   0  0  2  0  0  0
  -28.1112  -22.1966  -21.5112 N   0  0  0  0  0  0
  -28.6132  -21.5314  -22.6441 C   0  0  0  0  0  0
  -28.8333  -22.4564  -23.9125 C   0  0  0  0  0  0
  -28.4034  -22.0548  -25.0183 O   0  5  0  0  0  0
  -29.4096  -23.5493  -23.7109 O   0  0  0  0  0  0
  -28.9656  -20.2159  -22.5686 C   0  0  0  0  0  0
  -29.7356  -19.4750  -23.6561 C   0  0  0  0  0  0
  -31.1562  -19.4441  -23.2550 N   0  3  0  0  0  0
  -31.6465  -18.3643  -22.5970 C   0  0  0  0  0  0
  -32.9839  -18.3489  -22.1529 C   0  0  0  0  0  0
  -33.8137  -19.4570  -22.4086 C   0  0  0  0  0  0
  -33.2836  -20.5594  -23.1046 C   0  0  0  0  0  0
  -31.9370  -20.5240  -23.5210 C   0  0  0  0  0  0
  -28.7204  -19.3417  -21.3275 C   0  0  0  0  0  0
  -27.5082  -20.0148  -20.1683 S   0  0  0  0  0  0
  -27.5069  -23.3801  -21.1551 C   0  0  0  0  0  0
  -27.1614  -24.3423  -21.8092 O   0  0  0  0  0  0
  -25.5464  -24.7848  -18.8175 O   0  0  0  0  0  0
  -23.7058  -21.5931  -18.2720 C   0  0  0  0  0  0
  -22.6178  -20.9747  -18.8513 C   0  0  0  0  0  0
  -22.6003  -19.2534  -18.5978 S   0  0  0  0  0  0
  -24.1132  -19.4147  -17.7342 C   0  0  0  0  0  0
  -24.7689  -18.3063  -17.2410 N   0  0  0  0  0  0
  -24.5605  -20.6693  -17.6475 N   0  0  0  0  0  0
  -18.4862  -23.8028  -18.2805 H   0  0  0  0  0  0
  -19.4539  -22.3333  -18.2514 H   0  0  0  0  0  0
  -19.3399  -23.3329  -16.8118 H   0  0  0  0  0  0
  -19.8044  -24.5983  -20.3355 H   0  0  0  0  0  0
  -21.5492  -24.7624  -20.2733 H   0  0  0  0  0  0
  -20.8077  -23.1668  -20.3131 H   0  0  0  0  0  0
  -25.9033  -21.6605  -19.0593 H   0  0  0  0  0  0
  -28.1067  -23.5241  -18.9934 H   0  0  0  0  0  0
  -29.2671  -21.6462  -19.8357 H   0  0  0  0  0  0
  -29.3735  -18.4518  -23.7683 H   0  0  0  0  0  0
  -29.6788  -19.9378  -24.6392 H   0  0  0  0  0  0
  -30.9583  -17.5496  -22.4124 H   0  0  0  0  0  0
  -33.3595  -17.4932  -21.6121 H   0  0  0  0  0  0
  -34.8377  -19.4641  -22.0624 H   0  0  0  0  0  0
  -33.8978  -21.4271  -23.2998 H   0  0  0  0  0  0
  -31.4656  -21.3450  -24.0403 H   0  0  0  0  0  0
  -28.3810  -18.3497  -21.6138 H   0  0  0  0  0  0
  -29.6606  -19.2112  -20.7927 H   0  0  0  0  0  0
  -21.8072  -21.4299  -19.3952 H   0  0  0  0  0  0
  -25.7792  -18.3505  -17.1396 H   0  0  0  0  0  0
  -24.4044  -17.3856  -17.4387 H   0  0  0  0  0  0
  1  2  1  0  0  0
  1 38  1  0  0  0
  1 39  1  0  0  0
  1 40  1  0  0  0
  2  3  1  0  0  0
  2  4  1  0  0  0
  2  7  1  0  0  0
  3 41  1  0  0  0
  3 42  1  0  0  0
  3 43  1  0  0  0
  4  5  1  0  0  0
  4  6  2  0  0  0
  7  8  1  0  0  0
  8  9  2  3  0  0
  9 10  1  0  0  0
  9 32  1  0  0  0
 10 11  1  0  0  0
 10 31  2  0  0  0
 11 12  1  0  0  0
 11 44  1  0  0  0
 12 29  1  0  0  0
 12 13  1  0  0  0
 12 45  1  0  0  0
 13 28  1  0  0  0
 13 14  1  0  0  0
 13 46  1  0  0  0
 14 15  1  0  0  0
 14 29  1  0  0  0
 15 16  1  0  0  0
 15 19  2  0  0  0
 16 17  1  0  0  0
 16 18  2  0  0  0
 19 20  1  0  0  0
 19 27  1  0  0  0
 20 21  1  0  0  0
 20 47  1  0  0  0
 20 48  1  0  0  0
 21 26  1  0  0  0
 21 22  2  0  0  0
 22 23  1  0  0  0
 22 49  1  0  0  0
 23 24  2  0  0  0
 23 50  1  0  0  0
 24 25  1  0  0  0
 24 51  1  0  0  0
 25 26  2  0  0  0
 25 52  1  0  0  0
 26 53  1  0  0  0
 27 28  1  0  0  0
 27 54  1  0  0  0
 27 55  1  0  0  0
 29 30  2  0  0  0
 32 37  1  0  0  0
 32 33  2  0  0  0
 33 34  1  0  0  0
 33 56  1  0  0  0
 34 35  1  0  0  0
 35 36  1  0  0  0
 35 37  2  0  0  0
 36 57  1  0  0  0
 36 58  1  0  0  0
M  CHG  3   5  -1  17  -1  21   1
M  END
> <s_m_entry_id>
27332

> <s_m_entry_name>
data_maestro.30

> <s_m_Source_Path>
C:\Users\olshana1\Git\GramNeg-Accumulation\Gram Negative Permeation - OmpF

> <s_m_Source_File>
data_maestro.csv

> <i_m_Source_File_Index>
30

> <s_m_job_name>
glide-dock_Nicaido_neutral

> <s_i_glide_gridfile>
3POX-grid

> <i_i_glide_lignum>
38

> <i_i_glide_rotatable_bonds>
10

> <r_i_docking_score>
-5.44147043946288

> <r_i_glide_ligand_efficiency>
-0.147066768634132

> <r_i_glide_ligand_efficiency_sa>
-0.490059099503759

> <r_i_glide_ligand_efficiency_ln>
-1.18012737215318

> <r_i_glide_gscore>
-5.44147043946288

> <r_i_glide_lipo>
0

> <r_i_glide_hbond>
-1.37939097962076

> <r_i_glide_metal>
0

> <r_i_glide_rewards>
0.342716402761358

> <r_i_glide_evdw>
-31.3284225463867

> <r_i_glide_ecoul>
-18.722017288208

> <r_i_glide_erotb>
0.556495996469625

> <r_i_glide_esite>
-0.586568138522566

> <r_i_glide_emodel>
-84.8766733841467

> <r_i_glide_energy>
-50.0504398345947

> <r_i_glide_einternal>
8.50241756439209

> <i_i_glide_confnum>
260

> <i_i_glide_posenum>
245

> <r_i_glide_eff_state_penalty>
0

> <r_glide_res:A132_vdw>
0.615596359678869

> <r_glide_res:A132_coul>
-37.058355732523

> <r_glide_res:A132_hbond>
-0.1615545468441

> <r_glide_res:A132_dist>
2.04314004410016

> <r_glide_res:A132_Eint>
-36.6043139196882

> <r_glide_res:A117_vdw>
-2.02648188814862

> <r_glide_res:A117_coul>
9.31847468140634

> <r_glide_res:A117_hbond>
0

> <r_glide_res:A117_dist>
2.16862380018169

> <r_glide_res:A117_Eint>
7.29199279325772

> <r_glide_res:A113_vdw>
-4.73548337046819

> <r_glide_res:A113_coul>
0.309856320678129

> <r_glide_res:A113_hbond>
0

> <r_glide_res:A113_dist>
2.55163497142097

> <r_glide_res:A113_Eint>
-4.42562704979006

> <r_glide_res:A82_vdw>
-1.32619133533611

> <r_glide_res:A82_coul>
-41.757810433503

> <r_glide_res:A82_hbond>
-0.277132493453439

> <r_glide_res:A82_dist>
2.05385835814399

> <r_glide_res:A82_Eint>
-43.3611342622926

> <r_glide_res:A42_vdw>
-1.3873146586611

> <r_glide_res:A42_coul>
-36.6666165396704

> <r_glide_res:A42_hbond>
-0.239661886455665

> <r_glide_res:A42_dist>
2.14890635541974

> <r_glide_res:A42_Eint>
-38.2935930847872

> <r_glide_res:A16_vdw>
-0.413716406652434

> <r_glide_res:A16_coul>
-12.7646195758612

> <r_glide_res:A16_hbond>
0

> <r_glide_res:A16_dist>
3.73966004135578

> <r_glide_res:A16_Eint>
-13.1783359825136

> <s_m_source_file>
ligprep_Nicaido_neutral.maegz

> <i_m_source_file_index>
30

> <i_lp_mmshare_version>
58128

> <i_f3d_flags>
0

> <s_lp_Force_Field>
S-OPLS

> <r_lp_Energy>
86.633473

> <b_lp_Chiralities_Consistent>
1

> <s_lp_Variant>
Ceftazidime-1

> <s_epik_input>
W09IXUMoPU8pQyhbQ0gzXSkoW0NIM10pTy9OPUMoYzFbY0hdc2MobjEpW05IMl0pL0MoPU8pW05IXVtDQEBIXTJDKD1PKU4oW0NAQEhdMjMpQyhDKD1PKVtPSF0pPUMoW0NIMl1TMylbQ0gyXVtuK100W2NIXVtjSF1bY0hdW2NIXVtjSF00

> <s_epik_cmdline>
J2VwaWtfcHl0aG9uJywgJy1waHQnLCAnMC4wJywgJy1waCcsICc3LjQnLCAnLW50JywgJy1tYScsICc1MDAnLCAnLWltYWUnLCAnPGluZmlsZS5tYWU+JywgJy1vbWFlJywgJzxvdXRmaWxlLm1hZT4n

> <r_lp_tautomer_probability>
1

> <r_epik_Ionization_Penalty>
  0.0005

> <r_epik_Ionization_Penalty_Charging>
  0.0001

> <r_epik_Ionization_Penalty_Neutral>
  0.0005

> <r_epik_State_Penalty>
  0.0000

> <r_epik_Charging_Adjusted_Penalty>
5.84857251211915e-05

> <i_epik_Tot_Q>
-1

> <i_epik_Tot_abs_Q>
3

> <s_epik_Chemistry_Notes>
This compound has an imine and may undergo hydrolysis. This compound contains an acetal/aminal-like group ( X-CH(R)-Y where X, Y are N, S, or O) that may be acid/base labile, releasing an aldehyde.

> <s_m_subgroup_title>
glide-dock_Nicaido_neutral_pv1

> <s_m_subgroupid>
glide-dock_Nicaido_neutral_pv1

> <b_m_subgroup_collapsed>
0

$$$$
Imipenem
                    3D
 Schrodinger Suite 2022-2.
 37 38  0  0  1  0            999 V2000
  -32.0787  -17.2463  -24.6290 C   0  0  0  0  0  0
  -31.5009  -18.3619  -25.5071 C   0  0  2  0  0  0
  -30.2549  -19.0268  -24.9084 C   0  0  1  0  0  0
  -30.2645  -19.5930  -23.4727 C   0  0  2  0  0  0
  -29.1045  -19.4563  -22.4774 C   0  0  0  0  0  0
  -28.5314  -20.8523  -22.4134 C   0  0  0  0  0  0
  -27.1192  -21.2630  -21.4201 S   0  0  0  0  0  0
  -26.8193  -19.8507  -20.3163 C   0  0  0  0  0  0
  -26.6901  -20.3515  -18.8797 C   0  0  0  0  0  0
  -27.9703  -20.9088  -18.4135 N   0  3  0  0  0  0
  -28.1623  -22.1031  -17.8274 C   0  0  0  0  0  0
  -27.1707  -22.9847  -17.6134 N   0  0  0  0  0  0
  -29.1225  -21.6591  -23.3006 C   0  0  0  0  0  0
  -30.0226  -20.9065  -24.0482 N   0  0  0  0  0  0
  -30.0868  -20.4991  -25.3659 C   0  0  0  0  0  0
  -29.9691  -21.1002  -26.4133 O   0  0  0  0  0  0
  -28.8071  -23.1495  -23.6699 C   0  0  0  0  0  0
  -29.1641  -23.5164  -24.8132 O   0  5  0  0  0  0
  -28.2347  -23.8743  -22.8161 O   0  0  0  0  0  0
  -31.1722  -17.8150  -26.7706 O   0  0  0  0  0  0
  -32.4361  -17.6308  -23.6740 H   0  0  0  0  0  0
  -32.9195  -16.7508  -25.1135 H   0  0  0  0  0  0
  -31.3268  -16.4917  -24.4130 H   0  0  0  0  0  0
  -32.2860  -19.1022  -25.6701 H   0  0  0  0  0  0
  -29.3564  -18.4242  -25.0515 H   0  0  0  0  0  0
  -31.2512  -19.5867  -23.0066 H   0  0  0  0  0  0
  -28.3522  -18.7510  -22.8279 H   0  0  0  0  0  0
  -29.4706  -19.1274  -21.5043 H   0  0  0  0  0  0
  -25.9011  -19.3523  -20.6290 H   0  0  0  0  0  0
  -27.6059  -19.1018  -20.3680 H   0  0  0  0  0  0
  -25.9065  -21.1061  -18.8325 H   0  0  0  0  0  0
  -26.3685  -19.5496  -18.2192 H   0  0  0  0  0  0
  -29.1683  -22.3592  -17.5092 H   0  0  0  0  0  0
  -26.2251  -22.7397  -17.8585 H   0  0  0  0  0  0
  -27.3199  -23.7837  -17.0041 H   0  0  0  0  0  0
  -30.6574  -17.0298  -26.6292 H   0  0  0  0  0  0
  -28.8039  -20.3326  -18.5406 H   0  0  0  0  0  0
  1  2  1  0  0  0
  1 21  1  0  0  0
  1 22  1  0  0  0
  1 23  1  0  0  0
  2  3  1  0  0  0
  2 20  1  0  0  0
  2 24  1  0  0  0
  3 15  1  0  0  0
  3  4  1  0  0  0
  3 25  1  0  0  0
  4 14  1  0  0  0
  4  5  1  0  0  0
  4 26  1  0  0  0
  5  6  1  0  0  0
  5 27  1  0  0  0
  5 28  1  0  0  0
  6  7  1  0  0  0
  6 13  2  0  0  0
  7  8  1  0  0  0
  8  9  1  0  0  0
  8 29  1  0  0  0
  8 30  1  0  0  0
  9 10  1  0  0  0
  9 31  1  0  0  0
  9 32  1  0  0  0
 10 11  2  3  0  0
 10 37  1  0  0  0
 11 12  1  0  0  0
 11 33  1  0  0  0
 12 34  1  0  0  0
 12 35  1  0  0  0
 13 14  1  0  0  0
 13 17  1  0  0  0
 14 15  1  0  0  0
 15 16  2  0  0  0
 17 18  1  0  0  0
 17 19  2  0  0  0
 20 36  1  0  0  0
M  CHG  2  10   1  18  -1
M  END
> <s_m_entry_id>
27333

> <s_m_entry_name>
data_maestro.12

> <s_m_Source_Path>
C:\Users\olshana1\Git\GramNeg-Accumulation\Gram Negative Permeation - OmpF

> <s_m_Source_File>
data_maestro.csv

> <i_m_Source_File_Index>
12

> <s_m_job_name>
glide-dock_Nicaido_neutral

> <s_i_glide_gridfile>
3POX-grid

> <i_i_glide_lignum>
17

> <i_i_glide_rotatable_bonds>
7

> <r_i_docking_score>
-5.43965025988983

> <r_i_glide_ligand_efficiency>
-0.271982512994492

> <r_i_glide_ligand_efficiency_sa>
-0.738274123940777

> <r_i_glide_ligand_efficiency_ln>
-1.36136504837737

> <r_i_glide_gscore>
-5.43965025988983

> <r_i_glide_lipo>
0

> <r_i_glide_hbond>
-0.799617111302911

> <r_i_glide_metal>
0

> <r_i_glide_rewards>
-1.36808809090909

> <r_i_glide_evdw>
-13.3993434906006

> <r_i_glide_ecoul>
-21.0100040435791

> <r_i_glide_erotb>
1.02473259195513

> <r_i_glide_esite>
-0.475209868566062

> <r_i_glide_emodel>
-64.2617560475328

> <r_i_glide_energy>
-34.4093475341797

> <r_i_glide_einternal>
3.28123331069946

> <i_i_glide_confnum>
63

> <i_i_glide_posenum>
78

> <r_i_glide_eff_state_penalty>
0

> <r_glide_res:A132_vdw>
-1.11603339737299

> <r_glide_res:A132_coul>
-8.67881732424061

> <r_glide_res:A132_hbond>
0

> <r_glide_res:A132_dist>
2.94950592049024

> <r_glide_res:A132_Eint>
-9.79485072161359

> <r_glide_res:A117_vdw>
-3.03749552188141

> <r_glide_res:A117_coul>
0.685122011705455

> <r_glide_res:A117_hbond>
0

> <r_glide_res:A117_dist>
2.29298622484607

> <r_glide_res:A117_Eint>
-2.35237351017595

> <r_glide_res:A113_vdw>
-2.07263526997706

> <r_glide_res:A113_coul>
-23.6337043397029

> <r_glide_res:A113_hbond>
-0.182443524811103

> <r_glide_res:A113_dist>
2.13511295037779

> <r_glide_res:A113_Eint>
-25.8887831344911

> <r_glide_res:A82_vdw>
0.279999385073066

> <r_glide_res:A82_coul>
-31.509547794464

> <r_glide_res:A82_hbond>
-0.27012314962753

> <r_glide_res:A82_dist>
1.9242479024731

> <r_glide_res:A82_Eint>
-31.4996715590184

> <r_glide_res:A42_vdw>
1.24050970782953

> <r_glide_res:A42_coul>
-33.8268994923112

> <r_glide_res:A42_hbond>
-0.179266325781633

> <r_glide_res:A42_dist>
1.75328982747018

> <r_glide_res:A42_Eint>
-32.7656561102633

> <r_glide_res:A16_vdw>
0.923062125100335

> <r_glide_res:A16_coul>
-27.6071218473269

> <r_glide_res:A16_hbond>
-0.16

> <r_glide_res:A16_dist>
1.73766789201201

> <r_glide_res:A16_Eint>
-26.8440597222266

> <s_m_source_file>
ligprep_Nicaido_neutral.maegz

> <i_m_source_file_index>
12

> <i_lp_mmshare_version>
58128

> <i_f3d_flags>
0

> <s_lp_Force_Field>
S-OPLS

> <r_lp_Energy>
22.988374

> <b_lp_Chiralities_Consistent>
1

> <s_lp_Variant>
Imipenem-2

> <s_epik_input>
W0NIM11bQ0BASF0oW09IXSlbQ0BASF0xQyg9TylOKFtDQEhdMTIpQyhDKD1PKVtPSF0pPUMoW0NIMl0yKVNbQ0gyXVtDSDJdL049W0NIXS9bTkgyXQ==

> <s_epik_cmdline>
J2VwaWtfcHl0aG9uJywgJy1waHQnLCAnMC4wJywgJy1waCcsICc3LjQnLCAnLW50JywgJy1tYScsICc1MDAnLCAnLWltYWUnLCAnPGluZmlsZS5tYWU+JywgJy1vbWFlJywgJzxvdXRmaWxlLm1hZT4n

> <r_lp_tautomer_probability>
1

> <r_epik_Ionization_Penalty>
  0.0001

> <r_epik_Ionization_Penalty_Charging>
  0.0001

> <r_epik_Ionization_Penalty_Neutral>
  0.0000

> <r_epik_State_Penalty>
  0.0000

> <r_epik_Charging_Adjusted_Penalty>
9.5675940864495e-05

> <i_epik_Tot_Q>
0

> <i_epik_Tot_abs_Q>
2

> <s_epik_Chemistry_Notes>
This compound has an imine and may undergo hydrolysis.

> <s_m_subgroup_title>
glide-dock_Nicaido_neutral_pv1

> <s_m_subgroupid>
glide-dock_Nicaido_neutral_pv1

> <b_m_subgroup_collapsed>
0

$$$$
Nocardicin B
                    3D
 Schrodinger Suite 2022-2.
 59 61  0  0  1  0            999 V2000
  -21.9758  -20.6388  -21.0170 O   0  0  0  0  0  0
  -21.5305  -21.6971  -20.6318 C   0  0  0  0  0  0
  -21.5637  -22.5067  -19.3269 C   0  0  2  0  0  0
  -20.7516  -23.5505  -20.1019 C   0  0  0  0  0  0
  -20.7835  -22.6597  -21.2694 N   0  0  0  0  0  0
  -20.2046  -22.7578  -22.6120 C   0  0  2  0  0  0
  -21.2456  -22.6968  -23.6958 C   0  0  0  0  0  0
  -20.9180  -22.1004  -24.9355 C   0  0  0  0  0  0
  -21.8218  -22.0935  -26.0133 C   0  0  0  0  0  0
  -23.0831  -22.6955  -25.8790 C   0  0  0  0  0  0
  -23.4526  -23.2617  -24.6446 C   0  0  0  0  0  0
  -22.5428  -23.2568  -23.5683 C   0  0  0  0  0  0
  -23.9332  -22.7452  -26.9441 O   0  0  0  0  0  0
  -19.5072  -24.1156  -22.8318 C   0  0  0  0  0  0
  -18.2699  -24.1109  -23.0091 O   0  5  0  0  0  0
  -20.2170  -25.1498  -22.8133 O   0  0  0  0  0  0
  -22.9143  -22.9499  -19.0037 N   0  0  0  0  0  0
  -23.2448  -24.0675  -18.3349 C   0  0  0  0  0  0
  -24.7181  -24.4320  -18.4122 C   0  0  0  0  0  0
  -25.6092  -23.4585  -19.0973 C   0  0  0  0  0  0
  -26.5385  -22.6622  -18.3915 C   0  0  0  0  0  0
  -27.4024  -21.7907  -19.0876 C   0  0  0  0  0  0
  -27.3464  -21.6957  -20.4944 C   0  0  0  0  0  0
  -26.3984  -22.4889  -21.1914 C   0  0  0  0  0  0
  -25.5485  -23.3599  -20.5008 C   0  0  0  0  0  0
  -28.2242  -20.8351  -21.1235 O   0  0  0  0  0  0
  -28.1280  -20.7862  -22.5363 C   0  0  0  0  0  0
  -29.1063  -19.8122  -23.2064 C   0  0  0  0  0  0
  -28.7818  -19.5301  -24.7004 C   0  0  2  0  0  0
  -28.6594  -20.8220  -25.5469 C   0  0  0  0  0  0
  -27.6503  -21.5452  -25.3863 O   0  5  0  0  0  0
  -29.5692  -21.0784  -26.3657 O   0  0  0  0  0  0
  -27.5333  -18.7496  -24.8140 N   0  3  0  0  0  0
  -25.1114  -25.5486  -17.9499 N   0  0  0  0  0  0
  -26.5335  -25.6608  -18.0135 O   0  0  0  0  0  0
  -22.4307  -24.7866  -17.7470 O   0  0  0  0  0  0
  -21.0204  -22.0636  -18.4911 H   0  0  0  0  0  0
  -19.7495  -23.7033  -19.6970 H   0  0  0  0  0  0
  -21.2514  -24.5050  -20.2717 H   0  0  0  0  0  0
  -19.4746  -21.9553  -22.7263 H   0  0  0  0  0  0
  -19.9408  -21.6605  -25.0744 H   0  0  0  0  0  0
  -21.5249  -21.6494  -26.9533 H   0  0  0  0  0  0
  -24.4258  -23.7117  -24.5261 H   0  0  0  0  0  0
  -22.8304  -23.7229  -22.6379 H   0  0  0  0  0  0
  -23.5689  -22.3312  -27.7155 H   0  0  0  0  0  0
  -23.6639  -22.4103  -19.4173 H   0  0  0  0  0  0
  -26.6075  -22.7242  -17.3126 H   0  0  0  0  0  0
  -28.1226  -21.1942  -18.5429 H   0  0  0  0  0  0
  -26.2886  -22.4556  -22.2647 H   0  0  0  0  0  0
  -24.8342  -23.9468  -21.0594 H   0  0  0  0  0  0
  -28.3211  -21.7901  -22.9170 H   0  0  0  0  0  0
  -27.1126  -20.4958  -22.8053 H   0  0  0  0  0  0
  -29.1004  -18.8690  -22.6563 H   0  0  0  0  0  0
  -30.1207  -20.2013  -23.1129 H   0  0  0  0  0  0
  -29.5770  -18.9062  -25.1106 H   0  0  0  0  0  0
  -27.4142  -18.3947  -25.7532 H   0  0  0  0  0  0
  -27.5501  -17.9698  -24.1683 H   0  0  0  0  0  0
  -26.7696  -25.4378  -17.1130 H   0  0  0  0  0  0
  -26.7519  -19.3479  -24.5895 H   0  0  0  0  0  0
  1  2  2  0  0  0
  2  5  1  0  0  0
  2  3  1  0  0  0
  3  4  1  0  0  0
  3 17  1  0  0  0
  3 37  1  0  0  0
  4  5  1  0  0  0
  4 38  1  0  0  0
  4 39  1  0  0  0
  5  6  1  0  0  0
  6  7  1  0  0  0
  6 14  1  0  0  0
  6 40  1  0  0  0
  7 12  1  0  0  0
  7  8  2  0  0  0
  8  9  1  0  0  0
  8 41  1  0  0  0
  9 10  2  0  0  0
  9 42  1  0  0  0
 10 11  1  0  0  0
 10 13  1  0  0  0
 11 12  2  0  0  0
 11 43  1  0  0  0
 12 44  1  0  0  0
 13 45  1  0  0  0
 14 15  1  0  0  0
 14 16  2  0  0  0
 17 18  1  0  0  0
 17 46  1  0  0  0
 18 19  1  0  0  0
 18 36  2  0  0  0
 19 20  1  0  0  0
 19 34  2  3  0  0
 20 25  1  0  0  0
 20 21  2  0  0  0
 21 22  1  0  0  0
 21 47  1  0  0  0
 22 23  2  0  0  0
 22 48  1  0  0  0
 23 24  1  0  0  0
 23 26  1  0  0  0
 24 25  2  0  0  0
 24 49  1  0  0  0
 25 50  1  0  0  0
 26 27  1  0  0  0
 27 28  1  0  0  0
 27 51  1  0  0  0
 27 52  1  0  0  0
 28 29  1  0  0  0
 28 53  1  0  0  0
 28 54  1  0  0  0
 29 30  1  0  0  0
 29 33  1  0  0  0
 29 55  1  0  0  0
 30 31  1  0  0  0
 30 32  2  0  0  0
 33 56  1  0  0  0
 33 57  1  0  0  0
 33 59  1  0  0  0
 34 35  1  0  0  0
 35 58  1  0  0  0
M  CHG  3  15  -1  31  -1  33   1
M  END
> <s_m_entry_id>
27334

> <s_m_entry_name>
data_maestro.29

> <s_m_Source_Path>
C:\Users\olshana1\Git\GramNeg-Accumulation\Gram Negative Permeation - OmpF

> <s_m_Source_File>
data_maestro.csv

> <i_m_Source_File_Index>
29

> <s_m_job_name>
glide-dock_Nicaido_neutral

> <s_i_glide_gridfile>
3POX-grid

> <i_i_glide_lignum>
36

> <i_i_glide_rotatable_bonds>
14

> <r_i_docking_score>
-5.42472993940819

> <r_i_glide_ligand_efficiency>
-0.150686942761339

> <r_i_glide_ligand_efficiency_sa>
-0.497557321761953

> <r_i_glide_ligand_efficiency_ln>
-1.18352951351291

> <r_i_glide_gscore>
-5.42472993940819

> <r_i_glide_lipo>
0

> <r_i_glide_hbond>
-0.939948920543787

> <r_i_glide_metal>
0

> <r_i_glide_rewards>
0.000740274332049397

> <r_i_glide_evdw>
-23.3023681640625

> <r_i_glide_ecoul>
-24.3572387695313

> <r_i_glide_erotb>
0.900147327125679

> <r_i_glide_esite>
-0.566964396689316

> <r_i_glide_emodel>
-78.3332594336373

> <r_i_glide_energy>
-47.6596069335938

> <r_i_glide_einternal>
11.4249963760376

> <i_i_glide_confnum>
366

> <i_i_glide_posenum>
276

> <r_i_glide_eff_state_penalty>
0

> <r_glide_res:A132_vdw>
-2.87233274352489

> <r_glide_res:A132_coul>
-25.9331342664391

> <r_glide_res:A132_hbond>
0

> <r_glide_res:A132_dist>
2.10449553001579

> <r_glide_res:A132_Eint>
-28.805467009964

> <r_glide_res:A117_vdw>
-2.31500697469577

> <r_glide_res:A117_coul>
-9.8820271335676

> <r_glide_res:A117_hbond>
-0.0359640010493306

> <r_glide_res:A117_dist>
2.03747865594854

> <r_glide_res:A117_Eint>
-12.2329981093127

> <r_glide_res:A113_vdw>
-1.51370119922335

> <r_glide_res:A113_coul>
12.2454976509279

> <r_glide_res:A113_hbond>
0

> <r_glide_res:A113_dist>
3.06361747892584

> <r_glide_res:A113_Eint>
10.7317964517045

> <r_glide_res:A82_vdw>
-1.29067026287542

> <r_glide_res:A82_coul>
-27.4168118474006

> <r_glide_res:A82_hbond>
0

> <r_glide_res:A82_dist>
3.06894987646727

> <r_glide_res:A82_Eint>
-28.7074821102761

> <r_glide_res:A42_vdw>
1.97192087927056

> <r_glide_res:A42_coul>
-45.8494888769958

> <r_glide_res:A42_hbond>
-0.344967260330076

> <r_glide_res:A42_dist>
1.83640056340481

> <r_glide_res:A42_Eint>
-44.2225352580554

> <r_glide_res:A16_vdw>
0.390610257322996

> <r_glide_res:A16_coul>
-32.2358962385089

> <r_glide_res:A16_hbond>
-0.2

> <r_glide_res:A16_dist>
1.89896804482113

> <r_glide_res:A16_Eint>
-32.0452859811859

> <s_m_source_file>
ligprep_Nicaido_neutral.maegz

> <i_m_source_file_index>
29

> <i_lp_mmshare_version>
58128

> <i_f3d_flags>
0

> <s_lp_Force_Field>
S-OPLS

> <r_lp_Energy>
60.848016

> <b_lp_Chiralities_Consistent>
1

> <s_lp_Variant>
Nocardicin B-1

> <s_epik_input>
W2NIXTFbY0hdYyhbT0hdKVtjSF1bY0hdYzFbQ0BIXShDKD1PKVtPSF0pTjJbQ0gyXVtDQEBIXShDMj1PKVtOSF1DKD1PKS9DKD1OL1tPSF0pYzNbY0hdW2NIXWMoW2NIXVtjSF0zKU9bQ0gyXVtDSDJdW0NAQEhdKFtOSDJdKUMoPU8pW09IXQ==

> <s_epik_cmdline>
J2VwaWtfcHl0aG9uJywgJy1waHQnLCAnMC4wJywgJy1waCcsICc3LjQnLCAnLW50JywgJy1tYScsICc1MDAnLCAnLWltYWUnLCAnPGluZmlsZS5tYWU+JywgJy1vbWFlJywgJzxvdXRmaWxlLm1hZT4n

> <r_lp_tautomer_probability>
1

> <r_epik_Ionization_Penalty>
  0.0116

> <r_epik_Ionization_Penalty_Charging>
  0.0086

> <r_epik_Ionization_Penalty_Neutral>
  0.0030

> <r_epik_State_Penalty>
  0.0000

> <r_epik_Charging_Adjusted_Penalty>
0.0085560600321308

> <i_epik_Tot_Q>
-1

> <i_epik_Tot_abs_Q>
3

> <s_epik_Chemistry_Notes>
This compound has an imine and may undergo hydrolysis.

> <s_m_subgroup_title>
glide-dock_Nicaido_neutral_pv1

> <s_m_subgroupid>
glide-dock_Nicaido_neutral_pv1

> <b_m_subgroup_collapsed>
0

$$$$
Cephalexin
                    3D
 Schrodinger Suite 2022-2.
 40 42  0  0  1  0            999 V2000
  -29.6015  -23.6030  -20.5903 C   0  0  0  0  0  0
  -30.2406  -22.8237  -21.7305 C   0  0  0  0  0  0
  -29.7153  -22.6021  -22.9667 C   0  0  0  0  0  0
  -30.4900  -21.8117  -23.8327 N   0  0  0  0  0  0
  -30.9299  -20.5041  -23.3555 C   0  0  1  0  0  0
  -31.5832  -20.3314  -24.7250 C   0  0  2  0  0  0
  -30.6653  -21.4942  -25.1692 C   0  0  0  0  0  0
  -30.2331  -21.9491  -26.2100 O   0  0  0  0  0  0
  -31.2407  -19.0603  -25.3474 N   0  0  0  0  0  0
  -31.6428  -18.7737  -26.5865 C   0  0  0  0  0  0
  -31.1009  -17.4892  -27.2327 C   0  0  2  0  0  0
  -32.3236  -16.8613  -27.8128 C   0  0  0  0  0  0
  -32.8264  -17.2096  -29.0901 C   0  0  0  0  0  0
  -33.9978  -16.6246  -29.5990 C   0  0  0  0  0  0
  -34.6866  -15.6660  -28.8375 C   0  0  0  0  0  0
  -34.2130  -15.3079  -27.5644 C   0  0  0  0  0  0
  -33.0446  -15.9039  -27.0632 C   0  0  0  0  0  0
  -30.0616  -17.8076  -28.2170 N   0  0  0  0  0  0
  -32.3689  -19.5491  -27.2135 O   0  0  0  0  0  0
  -31.9648  -20.6572  -21.8562 S   0  0  0  0  0  0
  -31.6756  -22.3957  -21.4393 C   0  0  0  0  0  0
  -28.3220  -23.1256  -23.5116 C   0  0  0  0  0  0
  -27.6919  -23.9496  -22.8132 O   0  5  0  0  0  0
  -27.9689  -22.7496  -24.6525 O   0  0  0  0  0  0
  -29.8716  -23.1516  -19.6354 H   0  0  0  0  0  0
  -29.9682  -24.6288  -20.5879 H   0  0  0  0  0  0
  -28.5155  -23.5967  -20.6142 H   0  0  0  0  0  0
  -30.0773  -19.8426  -23.1789 H   0  0  0  0  0  0
  -32.6516  -20.5573  -24.7118 H   0  0  0  0  0  0
  -30.6448  -18.4168  -24.8453 H   0  0  0  0  0  0
  -30.6617  -16.8565  -26.4614 H   0  0  0  0  0  0
  -32.3119  -17.9498  -29.6837 H   0  0  0  0  0  0
  -34.3583  -16.8981  -30.5800 H   0  0  0  0  0  0
  -35.5689  -15.1954  -29.2408 H   0  0  0  0  0  0
  -34.7385  -14.5715  -26.9728 H   0  0  0  0  0  0
  -32.6943  -15.6190  -26.0816 H   0  0  0  0  0  0
  -29.4009  -17.0384  -28.2826 H   0  0  0  0  0  0
  -29.5061  -18.5828  -27.8895 H   0  0  0  0  0  0
  -32.3496  -23.0186  -22.0279 H   0  0  0  0  0  0
  -31.9460  -22.5513  -20.3992 H   0  0  0  0  0  0
  1  2  1  0  0  0
  1 25  1  0  0  0
  1 26  1  0  0  0
  1 27  1  0  0  0
  2 21  1  0  0  0
  2  3  2  0  0  0
  3  4  1  0  0  0
  3 22  1  0  0  0
  4  7  1  0  0  0
  4  5  1  0  0  0
  5  6  1  0  0  0
  5 20  1  0  0  0
  5 28  1  0  0  0
  6  7  1  0  0  0
  6  9  1  0  0  0
  6 29  1  0  0  0
  7  8  2  0  0  0
  9 10  1  0  0  0
  9 30  1  0  0  0
 10 11  1  0  0  0
 10 19  2  0  0  0
 11 12  1  0  0  0
 11 18  1  0  0  0
 11 31  1  0  0  0
 12 17  1  0  0  0
 12 13  2  0  0  0
 13 14  1  0  0  0
 13 32  1  0  0  0
 14 15  2  0  0  0
 14 33  1  0  0  0
 15 16  1  0  0  0
 15 34  1  0  0  0
 16 17  2  0  0  0
 16 35  1  0  0  0
 17 36  1  0  0  0
 18 37  1  0  0  0
 18 38  1  0  0  0
 20 21  1  0  0  0
 21 39  1  0  0  0
 21 40  1  0  0  0
 22 23  1  0  0  0
 22 24  2  0  0  0
M  CHG  1  23  -1
M  END
> <s_m_entry_id>
27335

> <s_m_entry_name>
data_maestro.14

> <s_m_Source_Path>
C:\Users\olshana1\Git\GramNeg-Accumulation\Gram Negative Permeation - OmpF

> <s_m_Source_File>
data_maestro.csv

> <i_m_Source_File_Index>
14

> <s_m_job_name>
glide-dock_Nicaido_neutral

> <s_i_glide_gridfile>
3POX-grid

> <i_i_glide_lignum>
19

> <i_i_glide_rotatable_bonds>
5

> <r_i_docking_score>
-5.40297258367584

> <r_i_glide_ligand_efficiency>
-0.22512385765316

> <r_i_glide_ligand_efficiency_sa>
-0.649369573244522

> <r_i_glide_ligand_efficiency_ln>
-1.2931792655304

> <r_i_glide_gscore>
-5.51817258367584

> <r_i_glide_lipo>
-0.416322982871983

> <r_i_glide_hbond>
-0.876227163635504

> <r_i_glide_metal>
0

> <r_i_glide_rewards>
-1.04732463212955

> <r_i_glide_evdw>
-23.4306182861328

> <r_i_glide_ecoul>
-14.2997064590454

> <r_i_glide_erotb>
0.475363118437828

> <r_i_glide_esite>
-0.337174040313175

> <r_i_glide_emodel>
-62.0315448652657

> <r_i_glide_energy>
-37.7303247451782

> <r_i_glide_einternal>
1.97418010234833

> <i_i_glide_confnum>
17

> <i_i_glide_posenum>
66

> <r_i_glide_eff_state_penalty>
0.1152

> <r_glide_res:A132_vdw>
-1.38714173709042

> <r_glide_res:A132_coul>
-31.6149900470941

> <r_glide_res:A132_hbond>
0

> <r_glide_res:A132_dist>
2.04196644736337

> <r_glide_res:A132_Eint>
-33.0021317841845

> <r_glide_res:A117_vdw>
-1.74178472138725

> <r_glide_res:A117_coul>
18.1006311020823

> <r_glide_res:A117_hbond>
0

> <r_glide_res:A117_dist>
3.1439456772476

> <r_glide_res:A117_Eint>
16.3588463806951

> <r_glide_res:A113_vdw>
-2.87578956908185

> <r_glide_res:A113_coul>
22.878350104546

> <r_glide_res:A113_hbond>
0

> <r_glide_res:A113_dist>
2.33116477445578

> <r_glide_res:A113_Eint>
20.0025605354641

> <r_glide_res:A82_vdw>
2.21874434121408

> <r_glide_res:A82_coul>
-47.8266821402368

> <r_glide_res:A82_hbond>
-0.2

> <r_glide_res:A82_dist>
1.6326359098456

> <r_glide_res:A82_Eint>
-45.8079377990227

> <r_glide_res:A42_vdw>
-0.500869199659863

> <r_glide_res:A42_coul>
-50.0046232661875

> <r_glide_res:A42_hbond>
-0.330096235900422

> <r_glide_res:A42_dist>
1.89070051807303

> <r_glide_res:A42_Eint>
-50.8355887017478

> <r_glide_res:A16_vdw>
-0.723993865898631

> <r_glide_res:A16_coul>
-42.0590248508411

> <r_glide_res:A16_hbond>
-0.171445292369362

> <r_glide_res:A16_dist>
2.06674495149712

> <r_glide_res:A16_Eint>
-42.9544640091091

> <s_m_source_file>
ligprep_Nicaido_neutral.maegz

> <i_m_source_file_index>
14

> <i_lp_mmshare_version>
58128

> <i_f3d_flags>
0

> <s_lp_Force_Field>
S-OPLS

> <r_lp_Energy>
47.820483

> <b_lp_Chiralities_Consistent>
1

> <s_lp_Variant>
Cephalexin-1

> <s_epik_input>
W09IXUMoPU8pQzE9QyhbQ0gzXSlbQ0gyXVNbQ0BASF0oTjEyKVtDQEhdKEMyPU8pW05IXUMoPU8pW0NAQEhdKFtOSDJdKWMzW2NIXVtjSF1bY0hdW2NIXVtjSF0z

> <s_epik_cmdline>
J2VwaWtfcHl0aG9uJywgJy1waHQnLCAnMC4wJywgJy1waCcsICc3LjQnLCAnLW50JywgJy1tYScsICc1MDAnLCAnLWltYWUnLCAnPGluZmlsZS5tYWU+JywgJy1vbWFlJywgJzxvdXRmaWxlLm1hZT4n

> <r_epik_Ionization_Penalty>
  0.1152

> <r_epik_Ionization_Penalty_Charging>
  0.0000

> <r_epik_Ionization_Penalty_Neutral>
  0.1152

> <r_epik_State_Penalty>
  0.1152

> <r_epik_Charging_Adjusted_Penalty>
0.115182589938214

> <i_epik_Tot_Q>
-1

> <i_epik_Tot_abs_Q>
1

> <s_epik_Chemistry_Notes>
This compound contains an acetal/aminal-like group ( X-CH(R)-Y where X, Y are N, S, or O) that may be acid/base labile, releasing an aldehyde.

> <s_m_subgroup_title>
glide-dock_Nicaido_neutral_pv1

> <s_m_subgroupid>
glide-dock_Nicaido_neutral_pv1

> <b_m_subgroup_collapsed>
0

$$$$
Moxalactam
                    3D
 Schrodinger Suite 2022-2.
 54 57  0  0  1  0            999 V2000
  -26.0024  -20.1751  -23.4540 C   0  0  0  0  0  0
  -25.9119  -21.4840  -22.8345 N   0  0  0  0  0  0
  -26.3655  -21.9429  -21.6605 C   0  0  0  0  0  0
  -27.2471  -20.9556  -20.5013 S   0  0  0  0  0  0
  -28.9222  -21.5616  -20.8592 C   0  0  0  0  0  0
  -29.4945  -20.9882  -22.1528 C   0  0  0  0  0  0
  -29.5099  -21.6111  -23.3606 C   0  0  0  0  0  0
  -28.9387  -23.0390  -23.6999 C   0  0  0  0  0  0
  -28.3722  -23.1491  -24.8132 O   0  5  0  0  0  0
  -29.0537  -23.9495  -22.8478 O   0  0  0  0  0  0
  -29.9887  -20.8667  -24.4430 N   0  0  0  0  0  0
  -30.0567  -19.4218  -24.3685 C   0  0  2  0  0  0
  -30.7983  -19.1559  -23.1874 O   0  0  0  0  0  0
  -30.0661  -19.5658  -22.0230 C   0  0  0  0  0  0
  -30.7740  -19.4510  -25.7414 C   0  0  1  0  0  0
  -30.5624  -20.9916  -25.6888 C   0  0  0  0  0  0
  -30.7746  -21.9490  -26.4067 O   0  0  0  0  0  0
  -32.1685  -18.9992  -25.6640 N   0  0  0  0  0  0
  -33.0687  -18.9168  -26.6677 C   0  0  0  0  0  0
  -34.5370  -18.5627  -26.3236 C   0  0  2  0  0  0
  -34.7846  -17.0554  -26.5820 C   0  0  0  0  0  0
  -35.8500  -16.7507  -27.1743 O   0  5  0  0  0  0
  -33.9393  -16.2247  -26.1799 O   0  0  0  0  0  0
  -34.9483  -18.9676  -24.9007 C   0  0  0  0  0  0
  -35.8357  -20.0533  -24.7326 C   0  0  0  0  0  0
  -36.1866  -20.5008  -23.4436 C   0  0  0  0  0  0
  -35.6395  -19.8806  -22.3054 C   0  0  0  0  0  0
  -35.9661  -20.3475  -21.0637 O   0  0  0  0  0  0
  -34.7579  -18.7935  -22.4641 C   0  0  0  0  0  0
  -34.4313  -18.3238  -23.7499 C   0  0  0  0  0  0
  -32.7681  -19.1508  -27.8400 O   0  0  0  0  0  0
  -30.0045  -18.8878  -26.8057 O   0  0  0  0  0  0
  -29.9223  -17.4714  -26.8015 C   0  0  0  0  0  0
  -26.0632  -23.2295  -21.5117 N   0  0  0  0  0  0
  -25.3905  -23.5465  -22.6766 N   0  0  0  0  0  0
  -25.2980  -22.5154  -23.4672 N   0  0  0  0  0  0
  -26.0141  -19.3949  -22.6915 H   0  0  0  0  0  0
  -26.9210  -20.1113  -24.0372 H   0  0  0  0  0  0
  -25.1508  -20.0040  -24.1135 H   0  0  0  0  0  0
  -28.9221  -22.6468  -20.8384 H   0  0  0  0  0  0
  -29.5671  -21.2654  -20.0331 H   0  0  0  0  0  0
  -29.0699  -18.9530  -24.3861 H   0  0  0  0  0  0
  -30.7430  -19.5151  -21.1710 H   0  0  0  0  0  0
  -29.2515  -18.8632  -21.8368 H   0  0  0  0  0  0
  -32.4990  -18.7855  -24.7329 H   0  0  0  0  0  0
  -35.1626  -19.1112  -27.0294 H   0  0  0  0  0  0
  -36.2456  -20.5585  -25.5943 H   0  0  0  0  0  0
  -36.8624  -21.3342  -23.3263 H   0  0  0  0  0  0
  -35.4760  -19.9502  -20.3505 H   0  0  0  0  0  0
  -34.3170  -18.3086  -21.6112 H   0  0  0  0  0  0
  -33.7570  -17.4833  -23.8444 H   0  0  0  0  0  0
  -29.2187  -17.1488  -27.5674 H   0  0  0  0  0  0
  -29.5656  -17.1093  -25.8385 H   0  0  0  0  0  0
  -30.8847  -17.0072  -27.0161 H   0  0  0  0  0  0
  1  2  1  0  0  0
  1 37  1  0  0  0
  1 38  1  0  0  0
  1 39  1  0  0  0
  2 36  1  0  0  0
  2  3  1  0  0  0
  3  4  1  0  0  0
  3 34  2  0  0  0
  4  5  1  0  0  0
  5  6  1  0  0  0
  5 40  1  0  0  0
  5 41  1  0  0  0
  6 14  1  0  0  0
  6  7  2  0  0  0
  7  8  1  0  0  0
  7 11  1  0  0  0
  8  9  1  0  0  0
  8 10  2  0  0  0
 11 16  1  0  0  0
 11 12  1  0  0  0
 12 13  1  0  0  0
 12 15  1  0  0  0
 12 42  1  0  0  0
 13 14  1  0  0  0
 14 43  1  0  0  0
 14 44  1  0  0  0
 15 16  1  0  0  0
 15 18  1  0  0  0
 15 32  1  0  0  0
 16 17  2  0  0  0
 18 19  1  0  0  0
 18 45  1  0  0  0
 19 20  1  0  0  0
 19 31  2  0  0  0
 20 21  1  0  0  0
 20 24  1  0  0  0
 20 46  1  0  0  0
 21 22  1  0  0  0
 21 23  2  0  0  0
 24 30  1  0  0  0
 24 25  2  0  0  0
 25 26  1  0  0  0
 25 47  1  0  0  0
 26 27  2  0  0  0
 26 48  1  0  0  0
 27 28  1  0  0  0
 27 29  1  0  0  0
 28 49  1  0  0  0
 29 30  2  0  0  0
 29 50  1  0  0  0
 30 51  1  0  0  0
 32 33  1  0  0  0
 33 52  1  0  0  0
 33 53  1  0  0  0
 33 54  1  0  0  0
 34 35  1  0  0  0
 35 36  2  0  0  0
M  CHG  2   9  -1  22  -1
M  END
> <s_m_entry_id>
27336

> <s_m_entry_name>
data_maestro.20

> <s_m_Source_Path>
C:\Users\olshana1\Git\GramNeg-Accumulation\Gram Negative Permeation - OmpF

> <s_m_Source_File>
data_maestro.csv

> <i_m_Source_File_Index>
20

> <s_m_job_name>
glide-dock_Nicaido_neutral

> <s_i_glide_gridfile>
3POX-grid

> <i_i_glide_lignum>
25

> <i_i_glide_rotatable_bonds>
11

> <r_i_docking_score>
-5.39830244100798

> <r_i_glide_ligand_efficiency>
-0.149952845583555

> <r_i_glide_ligand_efficiency_sa>
-0.495133386290189

> <r_i_glide_ligand_efficiency_ln>
-1.17776374735048

> <r_i_glide_gscore>
-5.39830244100798

> <r_i_glide_lipo>
-0.065379902772478

> <r_i_glide_hbond>
-1.09822682587618

> <r_i_glide_metal>
0

> <r_i_glide_rewards>
0.0002392189530808

> <r_i_glide_evdw>
-26.6753425598145

> <r_i_glide_ecoul>
-17.5783958435059

> <r_i_glide_erotb>
0.534860792752126

> <r_i_glide_esite>
-0.799269219547934

> <r_i_glide_emodel>
-79.5423377276797

> <r_i_glide_energy>
-44.2537384033203

> <r_i_glide_einternal>
5.21705532073975

> <i_i_glide_confnum>
150

> <i_i_glide_posenum>
171

> <r_i_glide_eff_state_penalty>
0

> <r_glide_res:A132_vdw>
-1.7682125958459

> <r_glide_res:A132_coul>
-47.3123146359404

> <r_glide_res:A132_hbond>
0

> <r_glide_res:A132_dist>
2.56733680620434

> <r_glide_res:A132_Eint>
-49.0805272317863

> <r_glide_res:A117_vdw>
-3.86295811587457

> <r_glide_res:A117_coul>
33.7372073107156

> <r_glide_res:A117_hbond>
0

> <r_glide_res:A117_dist>
2.15183986971653

> <r_glide_res:A117_Eint>
29.874249194841

> <r_glide_res:A113_vdw>
-3.19205393994398

> <r_glide_res:A113_coul>
32.7522968300152

> <r_glide_res:A113_hbond>
-0.32

> <r_glide_res:A113_dist>
1.93483277322311

> <r_glide_res:A113_Eint>
29.2402428900712

> <r_glide_res:A82_vdw>
-1.24084686437303

> <r_glide_res:A82_coul>
-64.7139051151385

> <r_glide_res:A82_hbond>
-0.22906402443405

> <r_glide_res:A82_dist>
1.90413463786834

> <r_glide_res:A82_Eint>
-66.1838160039456

> <r_glide_res:A42_vdw>
0.20215370935829

> <r_glide_res:A42_coul>
-66.0811591900981

> <r_glide_res:A42_hbond>
-0.268176973128206

> <r_glide_res:A42_dist>
1.93929363371274

> <r_glide_res:A42_Eint>
-66.1471824538681

> <r_glide_res:A16_vdw>
0.184217095653049

> <r_glide_res:A16_coul>
-66.0988475163082

> <r_glide_res:A16_hbond>
-0.12098582831392

> <r_glide_res:A16_dist>
1.94605070265429

> <r_glide_res:A16_Eint>
-66.0356162489691

> <s_m_source_file>
ligprep_Nicaido_neutral.maegz

> <i_m_source_file_index>
20

> <i_lp_mmshare_version>
58128

> <i_f3d_flags>
0

> <s_lp_Force_Field>
S-OPLS

> <r_lp_Energy>
52.146636

> <b_lp_Chiralities_Consistent>
1

> <s_lp_Variant>
Moxalactam-1

> <s_epik_input>
bjFubmMobjFbQ0gzXSlTW0NIMl1DKD1DMkMoPU8pW09IXSlbQ0gyXU9bQ0BASF0oTjIzKVtDQF0oQzM9TykoT1tDSDNdKVtOSF1DKD1PKVtDQEhdKEMoPU8pW09IXSljNFtjSF1bY0hdYyhbT0hdKVtjSF1bY0hdNA==

> <s_epik_cmdline>
J2VwaWtfcHl0aG9uJywgJy1waHQnLCAnMC4wJywgJy1waCcsICc3LjQnLCAnLW50JywgJy1tYScsICc1MDAnLCAnLWltYWUnLCAnPGluZmlsZS5tYWU+JywgJy1vbWFlJywgJzxvdXRmaWxlLm1hZT4n

> <r_lp_tautomer_probability>
1

> <r_epik_Ionization_Penalty>
  0.0029

> <r_epik_Ionization_Penalty_Charging>
  0.0001

> <r_epik_Ionization_Penalty_Neutral>
  0.0029

> <r_epik_State_Penalty>
  0.0000

> <r_epik_Charging_Adjusted_Penalty>
5.78268703870383e-05

> <i_epik_Tot_Q>
-2

> <i_epik_Tot_abs_Q>
2

> <s_epik_Chemistry_Notes>
This compound contains an acetal/aminal-like group ( X-CH(R)-Y where X, Y are N, S, or O) that may be acid/base labile, releasing an aldehyde.

> <s_m_subgroup_title>
glide-dock_Nicaido_neutral_pv1

> <s_m_subgroupid>
glide-dock_Nicaido_neutral_pv1

> <b_m_subgroup_collapsed>
0

$$$$
SCE-796
                    3D
 Schrodinger Suite 2022-2.
 54 57  0  0  1  0            999 V2000
  -29.2454  -23.9496  -22.7489 O   0  0  0  0  0  0
  -29.1288  -22.9492  -22.0743 C   0  0  0  0  0  0
  -29.3641  -22.5144  -20.5942 C   0  0  2  0  0  0
  -29.3315  -21.0827  -21.1810 C   0  0  2  0  0  0
  -28.6901  -21.6709  -22.3536 N   0  0  0  0  0  0
  -28.1282  -20.8857  -23.3765 C   0  0  0  0  0  0
  -28.4689  -21.2453  -24.8684 C   0  0  0  0  0  0
  -28.3688  -22.4435  -25.2127 O   0  5  0  0  0  0
  -28.7907  -20.2958  -25.6125 O   0  0  0  0  0  0
  -27.2231  -19.9399  -23.0221 C   0  0  0  0  0  0
  -26.9045  -19.7100  -21.5488 C   0  0  0  0  0  0
  -28.3689  -19.6875  -20.4987 S   0  0  0  0  0  0
  -26.3414  -19.1583  -24.0072 C   0  0  0  0  0  0
  -24.9165  -19.2429  -23.6178 N   0  3  0  0  0  0
  -24.3668  -18.2955  -22.8133 C   0  0  0  0  0  0
  -23.0086  -18.3569  -22.4471 C   0  0  0  0  0  0
  -22.2039  -19.3993  -22.9606 C   0  0  0  0  0  0
  -22.8092  -20.3899  -23.7638 C   0  0  0  0  0  0
  -24.1795  -20.2838  -24.0806 C   0  0  0  0  0  0
  -20.7370  -19.4632  -22.6601 C   0  0  0  0  0  0
  -20.0994  -18.2927  -22.6617 N   0  0  0  0  0  0
  -20.1626  -20.5355  -22.4899 O   0  0  0  0  0  0
  -28.3154  -22.7688  -19.5741 N   0  0  0  0  0  0
  -27.1430  -23.4408  -19.6424 C   0  0  0  0  0  0
  -26.3399  -23.5848  -18.3061 C   0  0  2  0  0  0
  -25.4528  -22.3769  -17.9117 C   0  0  0  0  0  0
  -24.4253  -22.5145  -16.9424 C   0  0  0  0  0  0
  -23.5955  -21.4279  -16.6020 C   0  0  0  0  0  0
  -23.7934  -20.1716  -17.2047 C   0  0  0  0  0  0
  -24.8507  -19.9963  -18.1112 C   0  0  0  0  0  0
  -25.6708  -21.0880  -18.4484 C   0  0  0  0  0  0
  -25.4800  -24.8749  -18.4189 C   0  0  0  0  0  0
  -25.9746  -25.9495  -18.0137 O   0  5  0  0  0  0
  -24.3505  -24.8126  -18.9588 O   0  0  0  0  0  0
  -26.7404  -23.9494  -20.6951 O   0  0  0  0  0  0
  -30.3602  -22.7577  -20.2252 H   0  0  0  0  0  0
  -30.3346  -20.7296  -21.4350 H   0  0  0  0  0  0
  -26.2059  -20.4812  -21.2272 H   0  0  0  0  0  0
  -26.4393  -18.7472  -21.3729 H   0  0  0  0  0  0
  -26.4154  -19.5087  -25.0358 H   0  0  0  0  0  0
  -26.6105  -18.1093  -24.0361 H   0  0  0  0  0  0
  -25.0183  -17.4910  -22.5053 H   0  0  0  0  0  0
  -22.5907  -17.5833  -21.8184 H   0  0  0  0  0  0
  -22.2218  -21.2090  -24.1543 H   0  0  0  0  0  0
  -24.6969  -20.9979  -24.7046 H   0  0  0  0  0  0
  -20.6077  -17.4502  -22.8960 H   0  0  0  0  0  0
  -19.1078  -18.2630  -22.4768 H   0  0  0  0  0  0
  -28.5423  -22.3700  -18.6717 H   0  0  0  0  0  0
  -27.0631  -23.7269  -17.5034 H   0  0  0  0  0  0
  -24.2564  -23.4640  -16.4553 H   0  0  0  0  0  0
  -22.8121  -21.5565  -15.8698 H   0  0  0  0  0  0
  -23.1646  -19.3346  -16.9382 H   0  0  0  0  0  0
  -25.0444  -19.0235  -18.5386 H   0  0  0  0  0  0
  -26.4850  -20.9139  -19.1185 H   0  0  0  0  0  0
  1  2  2  0  0  0
  2  5  1  0  0  0
  2  3  1  0  0  0
  3  4  1  0  0  0
  3 23  1  0  0  0
  3 36  1  0  0  0
  4 12  1  0  0  0
  4  5  1  0  0  0
  4 37  1  0  0  0
  5  6  1  0  0  0
  6  7  1  0  0  0
  6 10  2  0  0  0
  7  8  1  0  0  0
  7  9  2  0  0  0
 10 11  1  0  0  0
 10 13  1  0  0  0
 11 12  1  0  0  0
 11 38  1  0  0  0
 11 39  1  0  0  0
 13 14  1  0  0  0
 13 40  1  0  0  0
 13 41  1  0  0  0
 14 19  1  0  0  0
 14 15  2  0  0  0
 15 16  1  0  0  0
 15 42  1  0  0  0
 16 17  2  0  0  0
 16 43  1  0  0  0
 17 18  1  0  0  0
 17 20  1  0  0  0
 18 19  2  0  0  0
 18 44  1  0  0  0
 19 45  1  0  0  0
 20 21  1  0  0  0
 20 22  2  0  0  0
 21 46  1  0  0  0
 21 47  1  0  0  0
 23 24  1  0  0  0
 23 48  1  0  0  0
 24 25  1  0  0  0
 24 35  2  0  0  0
 25 26  1  0  0  0
 25 32  1  0  0  0
 25 49  1  0  0  0
 26 31  1  0  0  0
 26 27  2  0  0  0
 27 28  1  0  0  0
 27 50  1  0  0  0
 28 29  2  0  0  0
 28 51  1  0  0  0
 29 30  1  0  0  0
 29 52  1  0  0  0
 30 31  2  0  0  0
 30 53  1  0  0  0
 31 54  1  0  0  0
 32 33  1  0  0  0
 32 34  2  0  0  0
M  CHG  3   8  -1  14   1  33  -1
M  END
> <s_m_entry_id>
27337

> <s_m_entry_name>
data_maestro.28

> <s_m_Source_Path>
C:\Users\olshana1\Git\GramNeg-Accumulation\Gram Negative Permeation - OmpF

> <s_m_Source_File>
data_maestro.csv

> <i_m_Source_File_Index>
28

> <s_m_job_name>
glide-dock_Nicaido_neutral

> <s_i_glide_gridfile>
3POX-grid

> <i_i_glide_lignum>
35

> <i_i_glide_rotatable_bonds>
9

> <r_i_docking_score>
-5.39359437525148

> <r_i_glide_ligand_efficiency>
-0.154102696435757

> <r_i_glide_ligand_efficiency_sa>
-0.504080138022829

> <r_i_glide_ligand_efficiency_ln>
-1.18401366974536

> <r_i_glide_gscore>
-5.39359437525148

> <r_i_glide_lipo>
0

> <r_i_glide_hbond>
-0.954925281518172

> <r_i_glide_metal>
0

> <r_i_glide_rewards>
-0.0307650633972739

> <r_i_glide_evdw>
-30.9998054504395

> <r_i_glide_ecoul>
-17.3823871612549

> <r_i_glide_erotb>
0.415177540389138

> <r_i_glide_esite>
-0.665733224014966

> <r_i_glide_emodel>
-76.5626930630183

> <r_i_glide_energy>
-48.3821926116943

> <r_i_glide_einternal>
16.6350231170654

> <i_i_glide_confnum>
49

> <i_i_glide_posenum>
128

> <r_i_glide_eff_state_penalty>
0

> <r_glide_res:A132_vdw>
-2.43634249728284

> <r_glide_res:A132_coul>
-51.4251860773554

> <r_glide_res:A132_hbond>
-0.219178299128587

> <r_glide_res:A132_dist>
1.95230457704855

> <r_glide_res:A132_Eint>
-54.0807068737668

> <r_glide_res:A117_vdw>
-3.64097304285044

> <r_glide_res:A117_coul>
-4.96074587938973

> <r_glide_res:A117_hbond>
0

> <r_glide_res:A117_dist>
2.10951518942292

> <r_glide_res:A117_Eint>
-8.60171892224017

> <r_glide_res:A113_vdw>
-2.45940954308753

> <r_glide_res:A113_coul>
15.0449170446661

> <r_glide_res:A113_hbond>
0

> <r_glide_res:A113_dist>
2.38342938925436

> <r_glide_res:A113_Eint>
12.5855075015785

> <r_glide_res:A82_vdw>
-1.25346829815322

> <r_glide_res:A82_coul>
-44.2898072176867

> <r_glide_res:A82_hbond>
-0.16

> <r_glide_res:A82_dist>
1.90884874703572

> <r_glide_res:A82_Eint>
-45.7032755158399

> <r_glide_res:A42_vdw>
0.944203229796023

> <r_glide_res:A42_coul>
-44.3668318757711

> <r_glide_res:A42_hbond>
-0.34008655052256

> <r_glide_res:A42_dist>
1.87576918835822

> <r_glide_res:A42_Eint>
-43.7627151964977

> <r_glide_res:A16_vdw>
-0.597704630788787

> <r_glide_res:A16_coul>
-30.97557429779

> <r_glide_res:A16_hbond>
0

> <r_glide_res:A16_dist>
3.04785199310146

> <r_glide_res:A16_Eint>
-31.5732789285788

> <s_m_source_file>
ligprep_Nicaido_neutral.maegz

> <i_m_source_file_index>
28

> <i_lp_mmshare_version>
58128

> <i_f3d_flags>
0

> <s_lp_Force_Field>
S-OPLS

> <r_lp_Energy>
64.89814

> <b_lp_Chiralities_Consistent>
1

> <s_lp_Variant>
SCE-796-1

> <s_epik_input>
W2NIXTFbY0hdW2NIXVtjSF1bY0hdYzFbQ0BIXShDKD1PKVtPSF0pQyg9TylbTkhdW0NAQEhdMkMoPU8pTihbQ0BASF0yMylDKEMoPU8pW09IXSk9QyhbQ0gyXVMzKVtDSDJdW24rXTRbY0hdW2NIXWMoW2NIXVtjSF00KUMoPU8pW05IMl0=

> <s_epik_cmdline>
J2VwaWtfcHl0aG9uJywgJy1waHQnLCAnMC4wJywgJy1waCcsICc3LjQnLCAnLW50JywgJy1tYScsICc1MDAnLCAnLWltYWUnLCAnPGluZmlsZS5tYWU+JywgJy1vbWFlJywgJzxvdXRmaWxlLm1hZT4n

> <r_lp_tautomer_probability>
1

> <r_epik_Ionization_Penalty>
  0.0010

> <r_epik_Ionization_Penalty_Charging>
  0.0001

> <r_epik_Ionization_Penalty_Neutral>
  0.0010

> <r_epik_State_Penalty>
  0.0000

> <r_epik_Charging_Adjusted_Penalty>
5.79311335039239e-05

> <i_epik_Tot_Q>
-1

> <i_epik_Tot_abs_Q>
3

> <s_epik_Chemistry_Notes>
This compound contains an acetal/aminal-like group ( X-CH(R)-Y where X, Y are N, S, or O) that may be acid/base labile, releasing an aldehyde.

> <s_m_subgroup_title>
glide-dock_Nicaido_neutral_pv1

> <s_m_subgroupid>
glide-dock_Nicaido_neutral_pv1

> <b_m_subgroup_collapsed>
0

$$$$
Cefuroxime
                    3D
 Schrodinger Suite 2022-2.
 44 46  0  0  1  0            999 V2000
  -34.8919  -27.6618  -26.6312 C   0  0  0  0  0  0
  -34.7387  -26.6076  -27.5651 O   0  0  0  0  0  0
  -34.3295  -25.4651  -26.8620 N   0  0  0  0  0  0
  -34.0193  -24.5012  -27.6371 C   0  0  0  0  0  0
  -34.1003  -24.5524  -29.0976 C   0  0  0  0  0  0
  -33.2104  -24.8181  -30.1063 C   0  0  0  0  0  0
  -33.9296  -24.6838  -31.3274 C   0  0  0  0  0  0
  -35.2051  -24.3436  -30.9765 C   0  0  0  0  0  0
  -35.3262  -24.2599  -29.6223 O   0  0  0  0  0  0
  -33.4849  -23.1811  -27.1170 C   0  0  0  0  0  0
  -33.3147  -23.1460  -25.7789 N   0  0  0  0  0  0
  -32.5424  -22.1085  -25.0872 C   0  0  1  0  0  0
  -32.1035  -22.4890  -23.6539 C   0  0  1  0  0  0
  -30.7527  -22.1556  -24.0699 N   0  0  0  0  0  0
  -31.0417  -22.2093  -25.4163 C   0  0  0  0  0  0
  -30.3688  -22.3495  -26.4131 O   0  0  0  0  0  0
  -29.6826  -22.3093  -23.1769 C   0  0  0  0  0  0
  -28.4001  -23.0450  -23.6759 C   0  0  0  0  0  0
  -27.9690  -23.9492  -22.9196 O   0  5  0  0  0  0
  -27.9695  -22.7495  -24.8130 O   0  0  0  0  0  0
  -29.7441  -21.7303  -21.9573 C   0  0  0  0  0  0
  -30.9835  -20.9802  -21.4802 C   0  0  0  0  0  0
  -32.5844  -21.4745  -22.2127 S   0  0  0  0  0  0
  -28.5310  -21.5896  -21.0306 C   0  0  0  0  0  0
  -28.7690  -22.1300  -19.7456 O   0  0  0  0  0  0
  -28.2193  -23.2666  -19.3223 C   0  0  0  0  0  0
  -28.7689  -23.5499  -18.0986 N   0  0  0  0  0  0
  -27.3840  -23.9490  -19.9168 O   0  0  0  0  0  0
  -33.1691  -22.2537  -27.8685 O   0  0  0  0  0  0
  -35.1488  -28.5804  -27.1587 H   0  0  0  0  0  0
  -33.9694  -27.8474  -26.0772 H   0  0  0  0  0  0
  -35.6892  -27.4443  -25.9185 H   0  0  0  0  0  0
  -32.1699  -25.0780  -29.9796 H   0  0  0  0  0  0
  -33.5655  -24.8151  -32.3363 H   0  0  0  0  0  0
  -36.1062  -24.1322  -31.5361 H   0  0  0  0  0  0
  -33.6197  -23.9460  -25.2426 H   0  0  0  0  0  0
  -32.9678  -21.1058  -25.1563 H   0  0  0  0  0  0
  -32.1933  -23.5547  -23.4311 H   0  0  0  0  0  0
  -31.0864  -21.1497  -20.4134 H   0  0  0  0  0  0
  -30.8327  -19.9096  -21.6201 H   0  0  0  0  0  0
  -27.6141  -21.9892  -21.4598 H   0  0  0  0  0  0
  -28.3452  -20.5231  -20.9024 H   0  0  0  0  0  0
  -29.5146  -22.9248  -17.7948 H   0  0  0  0  0  0
  -28.4343  -24.3398  -17.5697 H   0  0  0  0  0  0
  1  2  1  0  0  0
  1 30  1  0  0  0
  1 31  1  0  0  0
  1 32  1  0  0  0
  2  3  1  0  0  0
  3  4  2  3  0  0
  4  5  1  0  0  0
  4 10  1  0  0  0
  5  9  1  0  0  0
  5  6  2  0  0  0
  6  7  1  0  0  0
  6 33  1  0  0  0
  7  8  2  0  0  0
  7 34  1  0  0  0
  8  9  1  0  0  0
  8 35  1  0  0  0
 10 11  1  0  0  0
 10 29  2  0  0  0
 11 12  1  0  0  0
 11 36  1  0  0  0
 12 15  1  0  0  0
 12 13  1  0  0  0
 12 37  1  0  0  0
 13 23  1  0  0  0
 13 14  1  0  0  0
 13 38  1  0  0  0
 14 15  1  0  0  0
 14 17  1  0  0  0
 15 16  2  0  0  0
 17 18  1  0  0  0
 17 21  2  0  0  0
 18 19  1  0  0  0
 18 20  2  0  0  0
 21 22  1  0  0  0
 21 24  1  0  0  0
 22 23  1  0  0  0
 22 39  1  0  0  0
 22 40  1  0  0  0
 24 25  1  0  0  0
 24 41  1  0  0  0
 24 42  1  0  0  0
 25 26  1  0  0  0
 26 27  1  0  0  0
 26 28  2  0  0  0
 27 43  1  0  0  0
 27 44  1  0  0  0
M  CHG  1  19  -1
M  END
> <s_m_entry_id>
27338

> <s_m_entry_name>
data_maestro.10

> <s_m_Source_Path>
C:\Users\olshana1\Git\GramNeg-Accumulation\Gram Negative Permeation - OmpF

> <s_m_Source_File>
data_maestro.csv

> <i_m_Source_File_Index>
10

> <s_m_job_name>
glide-dock_Nicaido_neutral

> <s_i_glide_gridfile>
3POX-grid

> <i_i_glide_lignum>
13

> <i_i_glide_rotatable_bonds>
9

> <r_i_docking_score>
-5.39078737857425

> <r_i_glide_ligand_efficiency>
-0.185889219950836

> <r_i_glide_ligand_efficiency_sa>
-0.571110577527538

> <r_i_glide_ligand_efficiency_ln>
-1.23435361112026

> <r_i_glide_gscore>
-5.39078737857425

> <r_i_glide_lipo>
-0.249146540289567

> <r_i_glide_hbond>
-1.1971538318316

> <r_i_glide_metal>
0

> <r_i_glide_rewards>
-0.516230380292512

> <r_i_glide_evdw>
-22.7724170684814

> <r_i_glide_ecoul>
-16.3220081329346

> <r_i_glide_erotb>
0.663396273735242

> <r_i_glide_esite>
-0.504730826531553

> <r_i_glide_emodel>
-67.3740911701969

> <r_i_glide_energy>
-39.094425201416

> <r_i_glide_einternal>
2.52679777145386

> <i_i_glide_confnum>
83

> <i_i_glide_posenum>
18

> <r_i_glide_eff_state_penalty>
0

> <r_glide_res:A132_vdw>
-1.74162266918773

> <r_glide_res:A132_coul>
-38.4278428628698

> <r_glide_res:A132_hbond>
-0.164293701392472

> <r_glide_res:A132_dist>
2.02848989797982

> <r_glide_res:A132_Eint>
-40.33375923345

> <r_glide_res:A117_vdw>
-0.555773470120012

> <r_glide_res:A117_coul>
24.1890417807117

> <r_glide_res:A117_hbond>
0

> <r_glide_res:A117_dist>
4.26097869372121

> <r_glide_res:A117_Eint>
23.6332683105917

> <r_glide_res:A113_vdw>
-1.73155020156081

> <r_glide_res:A113_coul>
16.5390257880552

> <r_glide_res:A113_hbond>
-0.16

> <r_glide_res:A113_dist>
1.99513709552372

> <r_glide_res:A113_Eint>
14.6474755864944

> <r_glide_res:A82_vdw>
1.29744291733051

> <r_glide_res:A82_coul>
-48.5966100647015

> <r_glide_res:A82_hbond>
-0.236278775762014

> <r_glide_res:A82_dist>
1.68977053578497

> <r_glide_res:A82_Eint>
-47.535445923133

> <r_glide_res:A42_vdw>
1.54957729077559

> <r_glide_res:A42_coul>
-52.3622337122668

> <r_glide_res:A42_hbond>
-0.377745135993791

> <r_glide_res:A42_dist>
1.76656444539919

> <r_glide_res:A42_Eint>
-51.190401557485

> <r_glide_res:A16_vdw>
-3.48986045662081

> <r_glide_res:A16_coul>
-40.7599969856245

> <r_glide_res:A16_hbond>
-0.258836218683323

> <r_glide_res:A16_dist>
2.05501617572848

> <r_glide_res:A16_Eint>
-44.5086936609286

> <s_m_source_file>
ligprep_Nicaido_neutral.maegz

> <i_m_source_file_index>
10

> <i_lp_mmshare_version>
58128

> <i_f3d_flags>
0

> <s_lp_Force_Field>
S-OPLS

> <r_lp_Energy>
41.721283

> <b_lp_Chiralities_Consistent>
1

> <s_lp_Variant>
Cefuroxime-1

> <s_epik_input>
bzFbY0hdW2NIXVtjSF1jMS9DKD1OXE9bQ0gzXSlDKD1PKVtOSF1bQ0BASF0yQyg9TylOKFtDQEhdMjMpQyhDKD1PKVtPSF0pPUMoW0NIMl1TMylbQ0gyXU9DKD1PKVtOSDJd

> <s_epik_cmdline>
J2VwaWtfcHl0aG9uJywgJy1waHQnLCAnMC4wJywgJy1waCcsICc3LjQnLCAnLW50JywgJy1tYScsICc1MDAnLCAnLWltYWUnLCAnPGluZmlsZS5tYWU+JywgJy1vbWFlJywgJzxvdXRmaWxlLm1hZT4n

> <r_lp_tautomer_probability>
1

> <r_epik_Ionization_Penalty>
  0.0000

> <r_epik_Ionization_Penalty_Charging>
  0.0000

> <r_epik_Ionization_Penalty_Neutral>
  0.0000

> <r_epik_State_Penalty>
  0.0000

> <r_epik_Charging_Adjusted_Penalty>
8.57368987839538e-06

> <i_epik_Tot_Q>
-1

> <i_epik_Tot_abs_Q>
1

> <s_epik_Chemistry_Notes>
This compound has an ester and may undergo hydrolysis at high or low pH. This compound has an imine and may undergo hydrolysis. This compound contains an acetal/aminal-like group ( X-CH(R)-Y where X, Y are N, S, or O) that may be acid/base labile, releasing an aldehyde.

> <s_m_subgroup_title>
glide-dock_Nicaido_neutral_pv1

> <s_m_subgroupid>
glide-dock_Nicaido_neutral_pv1

> <b_m_subgroup_collapsed>
0

$$$$
Cyclacillin
                    3D
 Schrodinger Suite 2022-2.
 46 48  0  0  1  0            999 V2000
  -22.8936  -21.9658  -22.0434 C   0  0  0  0  0  0
  -24.2450  -21.3204  -22.4196 C   0  0  0  0  0  0
  -25.2613  -22.2534  -23.1787 C   0  0  2  0  0  0
  -26.5558  -21.9161  -22.5906 N   0  0  0  0  0  0
  -26.7608  -20.8208  -21.6562 C   0  0  2  0  0  0
  -25.1169  -20.7961  -20.8940 S   0  0  0  0  0  0
  -27.9981  -21.5671  -21.1291 C   0  0  2  0  0  0
  -27.7443  -22.5497  -22.2982 C   0  0  0  0  0  0
  -28.2638  -23.5506  -22.7513 O   0  0  0  0  0  0
  -29.2426  -20.7756  -21.1744 N   0  0  0  0  0  0
  -29.7698  -20.1010  -22.2174 C   0  0  0  0  0  0
  -31.0350  -19.2392  -21.9595 C   0  0  0  0  0  0
  -31.4031  -18.3493  -23.1816 C   0  0  0  0  0  0
  -31.9930  -19.1148  -24.3847 C   0  0  0  0  0  0
  -33.1828  -19.9876  -23.9641 C   0  0  0  0  0  0
  -32.7946  -20.9284  -22.8158 C   0  0  0  0  0  0
  -32.2557  -20.1332  -21.6134 C   0  0  0  0  0  0
  -30.7480  -18.3496  -20.8134 N   0  3  0  0  0  0
  -29.2664  -20.1377  -23.3398 O   0  0  0  0  0  0
  -24.9683  -23.7691  -23.0936 C   0  0  0  0  0  0
  -24.6115  -24.3496  -24.1447 O   0  5  0  0  0  0
  -25.1467  -24.3494  -21.9982 O   0  0  0  0  0  0
  -23.9625  -20.0649  -23.2696 C   0  0  0  0  0  0
  -22.3749  -22.3469  -22.9237 H   0  0  0  0  0  0
  -23.0165  -22.7889  -21.3391 H   0  0  0  0  0  0
  -22.2353  -21.2400  -21.5647 H   0  0  0  0  0  0
  -25.2958  -21.9892  -24.2364 H   0  0  0  0  0  0
  -26.9643  -19.8701  -22.1524 H   0  0  0  0  0  0
  -27.8129  -22.0010  -20.1459 H   0  0  0  0  0  0
  -29.7358  -20.7128  -20.2877 H   0  0  0  0  0  0
  -32.1442  -17.6108  -22.8721 H   0  0  0  0  0  0
  -30.5380  -17.7685  -23.5076 H   0  0  0  0  0  0
  -32.3111  -18.4026  -25.1467 H   0  0  0  0  0  0
  -31.2340  -19.7363  -24.8580 H   0  0  0  0  0  0
  -34.0114  -19.3509  -23.6505 H   0  0  0  0  0  0
  -33.5428  -20.5654  -24.8158 H   0  0  0  0  0  0
  -33.6629  -21.5125  -22.5088 H   0  0  0  0  0  0
  -32.0488  -21.6465  -23.1589 H   0  0  0  0  0  0
  -32.0058  -20.8308  -20.8133 H   0  0  0  0  0  0
  -33.0623  -19.5141  -21.2161 H   0  0  0  0  0  0
  -31.4674  -17.6465  -20.7471 H   0  0  0  0  0  0
  -30.7506  -18.9008  -19.9397 H   0  0  0  0  0  0
  -23.4416  -20.3195  -24.1931 H   0  0  0  0  0  0
  -24.8815  -19.5468  -23.5474 H   0  0  0  0  0  0
  -23.3418  -19.3491  -22.7300 H   0  0  0  0  0  0
  -29.8534  -17.8873  -20.9191 H   0  0  0  0  0  0
  1  2  1  0  0  0
  1 24  1  0  0  0
  1 25  1  0  0  0
  1 26  1  0  0  0
  2  6  1  0  0  0
  2  3  1  0  0  0
  2 23  1  0  0  0
  3  4  1  0  0  0
  3 20  1  0  0  0
  3 27  1  0  0  0
  4  8  1  0  0  0
  4  5  1  0  0  0
  5  6  1  0  0  0
  5  7  1  0  0  0
  5 28  1  0  0  0
  7  8  1  0  0  0
  7 10  1  0  0  0
  7 29  1  0  0  0
  8  9  2  0  0  0
 10 11  1  0  0  0
 10 30  1  0  0  0
 11 12  1  0  0  0
 11 19  2  0  0  0
 12 17  1  0  0  0
 12 13  1  0  0  0
 12 18  1  0  0  0
 13 14  1  0  0  0
 13 31  1  0  0  0
 13 32  1  0  0  0
 14 15  1  0  0  0
 14 33  1  0  0  0
 14 34  1  0  0  0
 15 16  1  0  0  0
 15 35  1  0  0  0
 15 36  1  0  0  0
 16 17  1  0  0  0
 16 37  1  0  0  0
 16 38  1  0  0  0
 17 39  1  0  0  0
 17 40  1  0  0  0
 18 41  1  0  0  0
 18 42  1  0  0  0
 18 46  1  0  0  0
 20 21  1  0  0  0
 20 22  2  0  0  0
 23 43  1  0  0  0
 23 44  1  0  0  0
 23 45  1  0  0  0
M  CHG  2  18   1  21  -1
M  END
> <s_m_entry_id>
27339

> <s_m_entry_name>
data_maestro.19

> <s_m_Source_Path>
C:\Users\olshana1\Git\GramNeg-Accumulation\Gram Negative Permeation - OmpF

> <s_m_Source_File>
data_maestro.csv

> <i_m_Source_File_Index>
19

> <s_m_job_name>
glide-dock_Nicaido_neutral

> <s_i_glide_gridfile>
3POX-grid

> <i_i_glide_lignum>
24

> <i_i_glide_rotatable_bonds>
4

> <r_i_docking_score>
-5.37506660631154

> <r_i_glide_ligand_efficiency>
-0.233698548100502

> <r_i_glide_ligand_efficiency_sa>
-0.664607583487645

> <r_i_glide_ligand_efficiency_ln>
-1.29973984381547

> <r_i_glide_gscore>
-5.57836660631154

> <r_i_glide_lipo>
0

> <r_i_glide_hbond>
-0.559462740126518

> <r_i_glide_metal>
0

> <r_i_glide_rewards>
-1.08103341685567

> <r_i_glide_evdw>
-18.5219287872314

> <r_i_glide_ecoul>
-20.1216716766357

> <r_i_glide_erotb>
0.487675558125352

> <r_i_glide_esite>
-0.481198816597762

> <r_i_glide_emodel>
-67.4615291795278

> <r_i_glide_energy>
-38.6436004638672

> <r_i_glide_einternal>
6.038649559021

> <i_i_glide_confnum>
2

> <i_i_glide_posenum>
324

> <r_i_glide_eff_state_penalty>
0.2033

> <r_glide_res:A132_vdw>
1.08141073176216

> <r_glide_res:A132_coul>
-25.8136772541496

> <r_glide_res:A132_hbond>
-0.108380857454068

> <r_glide_res:A132_dist>
1.92894314860091

> <r_glide_res:A132_Eint>
-24.8406473798415

> <r_glide_res:A117_vdw>
-3.11068627576027

> <r_glide_res:A117_coul>
-2.20530270350772

> <r_glide_res:A117_hbond>
0

> <r_glide_res:A117_dist>
3.07832621272412

> <r_glide_res:A117_Eint>
-5.31598897926799

> <r_glide_res:A113_vdw>
-1.0048379747432

> <r_glide_res:A113_coul>
-41.9552543828653

> <r_glide_res:A113_hbond>
-0.334617295012951

> <r_glide_res:A113_dist>
1.61861245477658

> <r_glide_res:A113_Eint>
-43.2947096526215

> <r_glide_res:A82_vdw>
-1.40013809057582

> <r_glide_res:A82_coul>
-29.2462654932458

> <r_glide_res:A82_hbond>
-0.116464587659499

> <r_glide_res:A82_dist>
2.20883853085125

> <r_glide_res:A82_Eint>
-30.7628681714811

> <r_glide_res:A42_vdw>
-1.512638766447

> <r_glide_res:A42_coul>
-17.1339290761504

> <r_glide_res:A42_hbond>
0

> <r_glide_res:A42_dist>
2.66688358004092

> <r_glide_res:A42_Eint>
-18.6465678425974

> <r_glide_res:A16_vdw>
-0.298619115425267

> <r_glide_res:A16_coul>
-1.37161171373854

> <r_glide_res:A16_hbond>
0

> <r_glide_res:A16_dist>
3.68141253016975

> <r_glide_res:A16_Eint>
-1.67023082916381

> <s_m_source_file>
ligprep_Nicaido_neutral.maegz

> <i_m_source_file_index>
19

> <i_lp_mmshare_version>
58128

> <i_f3d_flags>
0

> <s_lp_Force_Field>
S-OPLS

> <r_lp_Energy>
30.580191

> <b_lp_Chiralities_Consistent>
1

> <s_lp_Variant>
Cyclacillin-1

> <s_epik_input>
W09IXUMoPU8pW0NAQEhdMUMoW0NIM10pKFtDSDNdKVNbQ0BASF0oTjEyKVtDQEhdKEMyPU8pW05IXUMoPU8pQzMoW05IMl0pW0NIMl1bQ0gyXVtDSDJdW0NIMl1bQ0gyXTM=

> <s_epik_cmdline>
J2VwaWtfcHl0aG9uJywgJy1waHQnLCAnMC4wJywgJy1waCcsICc3LjQnLCAnLW50JywgJy1tYScsICc1MDAnLCAnLWltYWUnLCAnPGluZmlsZS5tYWU+JywgJy1vbWFlJywgJzxvdXRmaWxlLm1hZT4n

> <r_epik_Ionization_Penalty>
  0.2033

> <r_epik_Ionization_Penalty_Charging>
  0.2033

> <r_epik_Ionization_Penalty_Neutral>
  0.0000

> <r_epik_State_Penalty>
  0.2033

> <r_epik_Charging_Adjusted_Penalty>
0.406545099244061

> <i_epik_Tot_Q>
0

> <i_epik_Tot_abs_Q>
2

> <s_epik_Chemistry_Notes>
This compound contains an acetal/aminal-like group ( X-CH(R)-Y where X, Y are N, S, or O) that may be acid/base labile, releasing an aldehyde.

> <s_m_subgroup_title>
glide-dock_Nicaido_neutral_pv1

> <s_m_subgroupid>
glide-dock_Nicaido_neutral_pv1

> <b_m_subgroup_collapsed>
0

$$$$
Cefuroxime
                    3D
 Schrodinger Suite 2022-2.
 44 46  0  0  1  0            999 V2000
  -25.2601  -20.5354  -17.7619 C   0  0  0  0  0  0
  -25.8913  -21.3637  -18.7225 O   0  0  0  0  0  0
  -26.3817  -22.4995  -18.0592 N   0  0  0  0  0  0
  -27.3226  -23.0837  -18.6880 C   0  0  0  0  0  0
  -27.9505  -24.2836  -18.1545 C   0  0  0  0  0  0
  -29.1689  -24.5792  -17.6134 C   0  0  0  0  0  0
  -29.1387  -25.9496  -17.2352 C   0  0  0  0  0  0
  -27.9103  -26.4077  -17.6134 C   0  0  0  0  0  0
  -27.1771  -25.4098  -18.1849 O   0  0  0  0  0  0
  -27.8622  -22.6908  -20.0438 C   0  0  0  0  0  0
  -29.1689  -22.3655  -20.0134 N   0  0  0  0  0  0
  -30.0774  -21.9593  -21.0917 C   0  0  1  0  0  0
  -29.6961  -20.6275  -21.7636 C   0  0  1  0  0  0
  -29.7992  -21.3326  -23.0271 N   0  0  0  0  0  0
  -29.8173  -22.6050  -22.4679 C   0  0  0  0  0  0
  -29.6413  -23.7254  -22.9051 O   0  0  0  0  0  0
  -29.5760  -20.6770  -24.2503 C   0  0  0  0  0  0
  -29.1684  -21.6113  -25.4117 C   0  0  0  0  0  0
  -28.1767  -22.3496  -25.2134 O   0  5  0  0  0  0
  -29.9164  -21.6124  -26.4134 O   0  0  0  0  0  0
  -29.6413  -19.3253  -24.3917 C   0  0  0  0  0  0
  -30.0558  -18.3858  -23.2596 C   0  0  0  0  0  0
  -30.8403  -19.2168  -21.8579 S   0  0  0  0  0  0
  -29.2364  -18.5897  -25.6693 C   0  0  0  0  0  0
  -30.2904  -17.7684  -26.1504 O   0  0  0  0  0  0
  -30.5808  -17.6895  -27.4547 C   0  0  0  0  0  0
  -31.5689  -16.7496  -27.6134 N   0  0  0  0  0  0
  -30.0693  -18.3496  -28.3590 O   0  0  0  0  0  0
  -27.1560  -22.7263  -21.0527 O   0  0  0  0  0  0
  -24.8578  -19.6495  -18.2530 H   0  0  0  0  0  0
  -25.9689  -20.1972  -17.0049 H   0  0  0  0  0  0
  -24.4364  -21.0511  -17.2663 H   0  0  0  0  0  0
  -29.9689  -23.8714  -17.4748 H   0  0  0  0  0  0
  -29.9200  -26.5200  -16.7546 H   0  0  0  0  0  0
  -27.4084  -27.3601  -17.5467 H   0  0  0  0  0  0
  -29.6367  -22.3380  -19.1079 H   0  0  0  0  0  0
  -31.1251  -21.9706  -20.7883 H   0  0  0  0  0  0
  -28.6709  -20.3010  -21.5737 H   0  0  0  0  0  0
  -29.1689  -17.8801  -22.8939 H   0  0  0  0  0  0
  -30.7391  -17.6169  -23.6207 H   0  0  0  0  0  0
  -28.3850  -17.9496  -25.4369 H   0  0  0  0  0  0
  -28.8867  -19.2788  -26.4355 H   0  0  0  0  0  0
  -31.7871  -16.1823  -26.8046 H   0  0  0  0  0  0
  -31.8837  -16.5386  -28.5457 H   0  0  0  0  0  0
  1  2  1  0  0  0
  1 30  1  0  0  0
  1 31  1  0  0  0
  1 32  1  0  0  0
  2  3  1  0  0  0
  3  4  2  3  0  0
  4  5  1  0  0  0
  4 10  1  0  0  0
  5  9  1  0  0  0
  5  6  2  0  0  0
  6  7  1  0  0  0
  6 33  1  0  0  0
  7  8  2  0  0  0
  7 34  1  0  0  0
  8  9  1  0  0  0
  8 35  1  0  0  0
 10 11  1  0  0  0
 10 29  2  0  0  0
 11 12  1  0  0  0
 11 36  1  0  0  0
 12 15  1  0  0  0
 12 13  1  0  0  0
 12 37  1  0  0  0
 13 23  1  0  0  0
 13 14  1  0  0  0
 13 38  1  0  0  0
 14 15  1  0  0  0
 14 17  1  0  0  0
 15 16  2  0  0  0
 17 18  1  0  0  0
 17 21  2  0  0  0
 18 19  1  0  0  0
 18 20  2  0  0  0
 21 22  1  0  0  0
 21 24  1  0  0  0
 22 23  1  0  0  0
 22 39  1  0  0  0
 22 40  1  0  0  0
 24 25  1  0  0  0
 24 41  1  0  0  0
 24 42  1  0  0  0
 25 26  1  0  0  0
 26 27  1  0  0  0
 26 28  2  0  0  0
 27 43  1  0  0  0
 27 44  1  0  0  0
M  CHG  1  19  -1
M  END
> <s_m_entry_id>
27340

> <s_m_entry_name>
data_maestro.10

> <s_m_Source_Path>
C:\Users\olshana1\Git\GramNeg-Accumulation\Gram Negative Permeation - OmpF

> <s_m_Source_File>
data_maestro.csv

> <i_m_Source_File_Index>
10

> <s_m_job_name>
glide-dock_Nicaido_neutral

> <s_i_glide_gridfile>
3POX-grid

> <i_i_glide_lignum>
14

> <i_i_glide_rotatable_bonds>
9

> <r_i_docking_score>
-5.36547734790691

> <r_i_glide_ligand_efficiency>
-0.185016460272652

> <r_i_glide_ligand_efficiency_sa>
-0.568429183286483

> <r_i_glide_ligand_efficiency_ln>
-1.22855825590444

> <r_i_glide_gscore>
-5.36547734790691

> <r_i_glide_lipo>
-0.0317165117654211

> <r_i_glide_hbond>
-1.09661178576467

> <r_i_glide_metal>
0

> <r_i_glide_rewards>
-0.465295124989953

> <r_i_glide_evdw>
-33.6851844787598

> <r_i_glide_ecoul>
-13.1477327346802

> <r_i_glide_erotb>
0.663396273735242

> <r_i_glide_esite>
-0.778831064982094

> <r_i_glide_emodel>
-70.8294169482038

> <r_i_glide_energy>
-46.8329172134399

> <r_i_glide_einternal>
8.13037967681885

> <i_i_glide_confnum>
63

> <i_i_glide_posenum>
309

> <r_i_glide_eff_state_penalty>
0

> <r_glide_res:A132_vdw>
-3.52568153932259

> <r_glide_res:A132_coul>
-25.2434290753357

> <r_glide_res:A132_hbond>
0

> <r_glide_res:A132_dist>
1.91124337993853

> <r_glide_res:A132_Eint>
-28.7691106146583

> <r_glide_res:A117_vdw>
-3.98994701879808

> <r_glide_res:A117_coul>
25.0821417513942

> <r_glide_res:A117_hbond>
0

> <r_glide_res:A117_dist>
2.23918961363539

> <r_glide_res:A117_Eint>
21.0921947325961

> <r_glide_res:A113_vdw>
-2.93164307630477

> <r_glide_res:A113_coul>
7.57191819686909

> <r_glide_res:A113_hbond>
-0.151016172999364

> <r_glide_res:A113_dist>
1.90536743523706

> <r_glide_res:A113_Eint>
4.48925894756495

> <r_glide_res:A82_vdw>
-1.53586825533202

> <r_glide_res:A82_coul>
-40.9502204847973

> <r_glide_res:A82_hbond>
-0.16

> <r_glide_res:A82_dist>
2.05229469661155

> <r_glide_res:A82_Eint>
-42.6460887401294

> <r_glide_res:A42_vdw>
1.76329007431033

> <r_glide_res:A42_coul>
-56.3811151754235

> <r_glide_res:A42_hbond>
-0.411676730336776

> <r_glide_res:A42_dist>
1.75612149654198

> <r_glide_res:A42_Eint>
-55.0295018314499

> <r_glide_res:A16_vdw>
0.439386091602486

> <r_glide_res:A16_coul>
-57.1238763668431

> <r_glide_res:A16_hbond>
-0.295706487161712

> <r_glide_res:A16_dist>
1.80459085446192

> <r_glide_res:A16_Eint>
-56.9801967624023

> <s_m_source_file>
ligprep_Nicaido_neutral.maegz

> <i_m_source_file_index>
10

> <i_lp_mmshare_version>
58128

> <i_f3d_flags>
0

> <s_lp_Force_Field>
S-OPLS

> <r_lp_Energy>
45.356438

> <b_lp_Chiralities_Consistent>
1

> <s_lp_Variant>
Cefuroxime-2

> <s_epik_input>
bzFbY0hdW2NIXVtjSF1jMS9DKD1OXE9bQ0gzXSlDKD1PKVtOSF1bQ0BASF0yQyg9TylOKFtDQEhdMjMpQyhDKD1PKVtPSF0pPUMoW0NIMl1TMylbQ0gyXU9DKD1PKVtOSDJd

> <s_epik_cmdline>
J2VwaWtfcHl0aG9uJywgJy1waHQnLCAnMC4wJywgJy1waCcsICc3LjQnLCAnLW50JywgJy1tYScsICc1MDAnLCAnLWltYWUnLCAnPGluZmlsZS5tYWU+JywgJy1vbWFlJywgJzxvdXRmaWxlLm1hZT4n

> <r_lp_tautomer_probability>
1

> <r_epik_Ionization_Penalty>
  0.0000

> <r_epik_Ionization_Penalty_Charging>
  0.0000

> <r_epik_Ionization_Penalty_Neutral>
  0.0000

> <r_epik_State_Penalty>
  0.0000

> <r_epik_Charging_Adjusted_Penalty>
8.57368987839538e-06

> <i_epik_Tot_Q>
-1

> <i_epik_Tot_abs_Q>
1

> <s_epik_Chemistry_Notes>
This compound has an ester and may undergo hydrolysis at high or low pH. This compound has an imine and may undergo hydrolysis. This compound contains an acetal/aminal-like group ( X-CH(R)-Y where X, Y are N, S, or O) that may be acid/base labile, releasing an aldehyde.

> <s_m_subgroup_title>
glide-dock_Nicaido_neutral_pv1

> <s_m_subgroupid>
glide-dock_Nicaido_neutral_pv1

> <b_m_subgroup_collapsed>
0

$$$$
Cefuroxime
                    3D
 Schrodinger Suite 2022-2.
 44 46  0  0  1  0            999 V2000
  -34.3203  -21.0419  -29.2130 C   0  0  0  0  0  0
  -33.5679  -20.5469  -28.1198 O   0  0  0  0  0  0
  -33.7786  -19.1625  -28.0534 N   0  0  0  0  0  0
  -33.0918  -18.5335  -27.1765 C   0  0  0  0  0  0
  -33.2566  -17.0871  -27.1144 C   0  0  0  0  0  0
  -32.5356  -16.0220  -27.5771 C   0  0  0  0  0  0
  -33.2591  -14.8557  -27.2132 C   0  0  0  0  0  0
  -34.3653  -15.2904  -26.5413 C   0  0  0  0  0  0
  -34.3857  -16.6499  -26.4823 O   0  0  0  0  0  0
  -32.0697  -19.1236  -26.1876 C   0  0  0  0  0  0
  -31.4423  -18.2133  -25.4069 N   0  0  0  0  0  0
  -30.2953  -18.4048  -24.4965 C   0  0  1  0  0  0
  -30.5042  -19.4385  -23.3718 C   0  0  1  0  0  0
  -29.2422  -20.0361  -23.7908 N   0  0  0  0  0  0
  -29.1941  -19.3662  -24.9992 C   0  0  0  0  0  0
  -28.5504  -19.5241  -26.0098 O   0  0  0  0  0  0
  -28.7248  -21.1567  -23.1126 C   0  0  0  0  0  0
  -28.3801  -22.4616  -23.9646 C   0  0  0  0  0  0
  -28.1797  -23.5396  -23.3530 O   0  5  0  0  0  0
  -28.3689  -22.3496  -25.2132 O   0  0  0  0  0  0
  -28.5042  -20.9879  -21.7814 C   0  0  0  0  0  0
  -28.8182  -19.6516  -21.1035 C   0  0  0  0  0  0
  -30.4200  -18.9417  -21.6141 S   0  0  0  0  0  0
  -27.7730  -21.9629  -20.8667 C   0  0  0  0  0  0
  -28.6369  -22.4688  -19.8642 O   0  0  0  0  0  0
  -28.2962  -23.5501  -19.1619 C   0  0  0  0  0  0
  -29.1689  -23.6748  -18.1086 N   0  0  0  0  0  0
  -27.3663  -24.3188  -19.4213 O   0  0  0  0  0  0
  -31.8163  -20.3302  -26.1496 O   0  0  0  0  0  0
  -34.2096  -22.1245  -29.2797 H   0  0  0  0  0  0
  -35.3838  -20.8229  -29.1028 H   0  0  0  0  0  0
  -33.9690  -20.6132  -30.1530 H   0  0  0  0  0  0
  -31.5926  -16.0763  -28.1018 H   0  0  0  0  0  0
  -32.9884  -13.8274  -27.3988 H   0  0  0  0  0  0
  -35.1897  -14.7877  -26.0576 H   0  0  0  0  0  0
  -31.7347  -17.2506  -25.5090 H   0  0  0  0  0  0
  -29.9137  -17.4610  -24.1040 H   0  0  0  0  0  0
  -31.3346  -20.1269  -23.5396 H   0  0  0  0  0  0
  -28.8263  -19.7574  -20.0177 H   0  0  0  0  0  0
  -28.0226  -18.9445  -21.3414 H   0  0  0  0  0  0
  -27.2936  -22.7680  -21.4143 H   0  0  0  0  0  0
  -26.9616  -21.4210  -20.3801 H   0  0  0  0  0  0
  -29.9077  -22.9603  -18.0211 H   0  0  0  0  0  0
  -29.0147  -24.4048  -17.4328 H   0  0  0  0  0  0
  1  2  1  0  0  0
  1 30  1  0  0  0
  1 31  1  0  0  0
  1 32  1  0  0  0
  2  3  1  0  0  0
  3  4  2  3  0  0
  4  5  1  0  0  0
  4 10  1  0  0  0
  5  9  1  0  0  0
  5  6  2  0  0  0
  6  7  1  0  0  0
  6 33  1  0  0  0
  7  8  2  0  0  0
  7 34  1  0  0  0
  8  9  1  0  0  0
  8 35  1  0  0  0
 10 11  1  0  0  0
 10 29  2  0  0  0
 11 12  1  0  0  0
 11 36  1  0  0  0
 12 15  1  0  0  0
 12 13  1  0  0  0
 12 37  1  0  0  0
 13 23  1  0  0  0
 13 14  1  0  0  0
 13 38  1  0  0  0
 14 15  1  0  0  0
 14 17  1  0  0  0
 15 16  2  0  0  0
 17 18  1  0  0  0
 17 21  2  0  0  0
 18 19  1  0  0  0
 18 20  2  0  0  0
 21 22  1  0  0  0
 21 24  1  0  0  0
 22 23  1  0  0  0
 22 39  1  0  0  0
 22 40  1  0  0  0
 24 25  1  0  0  0
 24 41  1  0  0  0
 24 42  1  0  0  0
 25 26  1  0  0  0
 26 27  1  0  0  0
 26 28  2  0  0  0
 27 43  1  0  0  0
 27 44  1  0  0  0
M  CHG  1  19  -1
M  END
> <s_m_entry_id>
27341

> <s_m_entry_name>
data_maestro.10

> <s_m_Source_Path>
C:\Users\olshana1\Git\GramNeg-Accumulation\Gram Negative Permeation - OmpF

> <s_m_Source_File>
data_maestro.csv

> <i_m_Source_File_Index>
10

> <s_m_job_name>
glide-dock_Nicaido_neutral

> <s_i_glide_gridfile>
3POX-grid

> <i_i_glide_lignum>
14

> <i_i_glide_rotatable_bonds>
9

> <r_i_docking_score>
-5.36401435216401

> <r_i_glide_ligand_efficiency>
-0.184966012143587

> <r_i_glide_ligand_efficiency_sa>
-0.568274190650904

> <r_i_glide_ligand_efficiency_ln>
-1.22822326697769

> <r_i_glide_gscore>
-5.36401435216401

> <r_i_glide_lipo>
-0.248875211863463

> <r_i_glide_hbond>
-0.822865689488087

> <r_i_glide_metal>
0

> <r_i_glide_rewards>
-0.515018002194826

> <r_i_glide_evdw>
-29.3565616607666

> <r_i_glide_ecoul>
-15.297553062439

> <r_i_glide_erotb>
0.663396273735242

> <r_i_glide_esite>
-0.678190679948701

> <r_i_glide_emodel>
-68.8109828528198

> <r_i_glide_energy>
-44.6541147232056

> <r_i_glide_einternal>
8.07838153839111

> <i_i_glide_confnum>
104

> <i_i_glide_posenum>
221

> <r_i_glide_eff_state_penalty>
0

> <r_glide_res:A132_vdw>
-0.717005384833624

> <r_glide_res:A132_coul>
-36.6900122052332

> <r_glide_res:A132_hbond>
-0.150029228410161

> <r_glide_res:A132_dist>
1.95177492935351

> <r_glide_res:A132_Eint>
-37.5570468184769

> <r_glide_res:A117_vdw>
-4.70274775792008

> <r_glide_res:A117_coul>
24.6509911992337

> <r_glide_res:A117_hbond>
0

> <r_glide_res:A117_dist>
2.27375498590471

> <r_glide_res:A117_Eint>
19.9482434413136

> <r_glide_res:A113_vdw>
-0.214240309686937

> <r_glide_res:A113_coul>
17.5274387172462

> <r_glide_res:A113_hbond>
-0.16

> <r_glide_res:A113_dist>
1.65292725931236

> <r_glide_res:A113_Eint>
17.1531984075592

> <r_glide_res:A82_vdw>
-0.733101746026632

> <r_glide_res:A82_coul>
-46.913061152607

> <r_glide_res:A82_hbond>
-0.16342231271827

> <r_glide_res:A82_dist>
2.0072482057842

> <r_glide_res:A82_Eint>
-47.8095852113519

> <r_glide_res:A42_vdw>
0.193531988061995

> <r_glide_res:A42_coul>
-53.2477286335857

> <r_glide_res:A42_hbond>
-0.348951977666269

> <r_glide_res:A42_dist>
1.90595510834648

> <r_glide_res:A42_Eint>
-53.40314862319

> <r_glide_res:A16_vdw>
-2.42503872133213

> <r_glide_res:A16_coul>
-43.0237359766888

> <r_glide_res:A16_hbond>
0

> <r_glide_res:A16_dist>
2.00461728566189

> <r_glide_res:A16_Eint>
-45.4487746980209

> <s_m_source_file>
ligprep_Nicaido_neutral.maegz

> <i_m_source_file_index>
10

> <i_lp_mmshare_version>
58128

> <i_f3d_flags>
0

> <s_lp_Force_Field>
S-OPLS

> <r_lp_Energy>
45.356438

> <b_lp_Chiralities_Consistent>
1

> <s_lp_Variant>
Cefuroxime-2

> <s_epik_input>
bzFbY0hdW2NIXVtjSF1jMS9DKD1OXE9bQ0gzXSlDKD1PKVtOSF1bQ0BASF0yQyg9TylOKFtDQEhdMjMpQyhDKD1PKVtPSF0pPUMoW0NIMl1TMylbQ0gyXU9DKD1PKVtOSDJd

> <s_epik_cmdline>
J2VwaWtfcHl0aG9uJywgJy1waHQnLCAnMC4wJywgJy1waCcsICc3LjQnLCAnLW50JywgJy1tYScsICc1MDAnLCAnLWltYWUnLCAnPGluZmlsZS5tYWU+JywgJy1vbWFlJywgJzxvdXRmaWxlLm1hZT4n

> <r_lp_tautomer_probability>
1

> <r_epik_Ionization_Penalty>
  0.0000

> <r_epik_Ionization_Penalty_Charging>
  0.0000

> <r_epik_Ionization_Penalty_Neutral>
  0.0000

> <r_epik_State_Penalty>
  0.0000

> <r_epik_Charging_Adjusted_Penalty>
8.57368987839538e-06

> <i_epik_Tot_Q>
-1

> <i_epik_Tot_abs_Q>
1

> <s_epik_Chemistry_Notes>
This compound has an ester and may undergo hydrolysis at high or low pH. This compound has an imine and may undergo hydrolysis. This compound contains an acetal/aminal-like group ( X-CH(R)-Y where X, Y are N, S, or O) that may be acid/base labile, releasing an aldehyde.

> <s_m_subgroup_title>
glide-dock_Nicaido_neutral_pv1

> <s_m_subgroupid>
glide-dock_Nicaido_neutral_pv1

> <b_m_subgroup_collapsed>
0

$$$$
Cefaclor
                    3D
 Schrodinger Suite 2022-2.
 37 39  0  0  1  0            999 V2000
  -28.8693  -23.5180  -22.8138 O   0  0  0  0  0  0
  -29.2519  -22.4374  -22.4080 C   0  0  0  0  0  0
  -29.6802  -21.8008  -21.0571 C   0  0  2  0  0  0
  -29.6484  -20.4576  -21.8158 C   0  0  1  0  0  0
  -29.4974  -21.2269  -23.0343 N   0  0  0  0  0  0
  -29.4463  -20.6178  -24.2983 C   0  0  0  0  0  0
  -28.8324  -21.4819  -25.4302 C   0  0  0  0  0  0
  -29.5689  -21.7175  -26.4148 O   0  5  0  0  0  0
  -27.6907  -21.9496  -25.2134 O   0  0  0  0  0  0
  -29.8597  -19.3419  -24.4970 C   0  0  0  0  0  0
  -30.4500  -18.4291  -23.4296 C   0  0  0  0  0  0
  -31.0930  -19.3627  -22.0134 S   0  0  0  0  0  0
  -29.7867  -18.5328  -26.0268 Cl  0  0  0  0  0  0
  -28.6586  -21.7812  -20.0133 N   0  0  0  0  0  0
  -27.8676  -22.7802  -19.5985 C   0  0  0  0  0  0
  -26.7920  -22.3682  -18.5770 C   0  0  2  0  0  0
  -25.5231  -23.0135  -19.0498 C   0  0  0  0  0  0
  -24.9829  -24.1781  -18.4478 C   0  0  0  0  0  0
  -23.7790  -24.7498  -18.9024 C   0  0  0  0  0  0
  -23.0899  -24.1759  -19.9845 C   0  0  0  0  0  0
  -23.6072  -23.0248  -20.6027 C   0  0  0  0  0  0
  -24.8056  -22.4534  -20.1344 C   0  0  0  0  0  0
  -27.1951  -22.7496  -17.2326 N   0  0  0  0  0  0
  -27.9689  -23.9496  -19.9911 O   0  0  0  0  0  0
  -30.6776  -22.0654  -20.7036 H   0  0  0  0  0  0
  -28.7467  -19.8684  -21.6290 H   0  0  0  0  0  0
  -29.6697  -17.7522  -23.0798 H   0  0  0  0  0  0
  -31.2490  -17.8148  -23.8457 H   0  0  0  0  0  0
  -28.5705  -20.8948  -19.5337 H   0  0  0  0  0  0
  -26.6770  -21.2824  -18.5929 H   0  0  0  0  0  0
  -25.4945  -24.6371  -17.6138 H   0  0  0  0  0  0
  -23.3815  -25.6267  -18.4162 H   0  0  0  0  0  0
  -22.1640  -24.6086  -20.3329 H   0  0  0  0  0  0
  -23.0820  -22.5695  -21.4297 H   0  0  0  0  0  0
  -25.1823  -21.5627  -20.6175 H   0  0  0  0  0  0
  -27.1689  -21.9674  -16.5824 H   0  0  0  0  0  0
  -28.1512  -23.0764  -17.2206 H   0  0  0  0  0  0
  1  2  2  0  0  0
  2  5  1  0  0  0
  2  3  1  0  0  0
  3  4  1  0  0  0
  3 14  1  0  0  0
  3 25  1  0  0  0
  4 12  1  0  0  0
  4  5  1  0  0  0
  4 26  1  0  0  0
  5  6  1  0  0  0
  6  7  1  0  0  0
  6 10  2  0  0  0
  7  8  1  0  0  0
  7  9  2  0  0  0
 10 11  1  0  0  0
 10 13  1  0  0  0
 11 12  1  0  0  0
 11 27  1  0  0  0
 11 28  1  0  0  0
 14 15  1  0  0  0
 14 29  1  0  0  0
 15 16  1  0  0  0
 15 24  2  0  0  0
 16 17  1  0  0  0
 16 23  1  0  0  0
 16 30  1  0  0  0
 17 22  1  0  0  0
 17 18  2  0  0  0
 18 19  1  0  0  0
 18 31  1  0  0  0
 19 20  2  0  0  0
 19 32  1  0  0  0
 20 21  1  0  0  0
 20 33  1  0  0  0
 21 22  2  0  0  0
 21 34  1  0  0  0
 22 35  1  0  0  0
 23 36  1  0  0  0
 23 37  1  0  0  0
M  CHG  1   8  -1
M  END
> <s_m_entry_id>
27342

> <s_m_entry_name>
data_maestro.15

> <s_m_Source_Path>
C:\Users\olshana1\Git\GramNeg-Accumulation\Gram Negative Permeation - OmpF

> <s_m_Source_File>
data_maestro.csv

> <i_m_Source_File_Index>
15

> <s_m_job_name>
glide-dock_Nicaido_neutral

> <s_i_glide_gridfile>
3POX-grid

> <i_i_glide_lignum>
20

> <i_i_glide_rotatable_bonds>
5

> <r_i_docking_score>
-5.36252918744287

> <r_i_glide_ligand_efficiency>
-0.223438716143453

> <r_i_glide_ligand_efficiency_sa>
-0.644508784013107

> <r_i_glide_ligand_efficiency_ln>
-1.28349930498533

> <r_i_glide_gscore>
-5.47892918744287

> <r_i_glide_lipo>
0

> <r_i_glide_hbond>
-1.07825603877678

> <r_i_glide_metal>
0

> <r_i_glide_rewards>
-0.907514979277915

> <r_i_glide_evdw>
-22.730936050415

> <r_i_glide_ecoul>
-15.6824016571045

> <r_i_glide_erotb>
0.429266414571003

> <r_i_glide_esite>
-0.433517532872754

> <r_i_glide_emodel>
-62.7693273314408

> <r_i_glide_energy>
-38.4133377075195

> <r_i_glide_einternal>
2.50984859466553

> <i_i_glide_confnum>
4

> <i_i_glide_posenum>
305

> <r_i_glide_eff_state_penalty>
0.1164

> <r_glide_res:A132_vdw>
-1.69792211402374

> <r_glide_res:A132_coul>
-36.0146371864563

> <r_glide_res:A132_hbond>
-0.16

> <r_glide_res:A132_dist>
1.83934136599966

> <r_glide_res:A132_Eint>
-37.87255930048

> <r_glide_res:A117_vdw>
-2.90741229993982

> <r_glide_res:A117_coul>
24.9900922790285

> <r_glide_res:A117_hbond>
0

> <r_glide_res:A117_dist>
2.65659037548619

> <r_glide_res:A117_Eint>
22.0826799790887

> <r_glide_res:A113_vdw>
-3.85485566291875

> <r_glide_res:A113_coul>
11.8912313312965

> <r_glide_res:A113_hbond>
0

> <r_glide_res:A113_dist>
2.62025616152533

> <r_glide_res:A113_Eint>
8.03637566837778

> <r_glide_res:A82_vdw>
-1.73789172886972

> <r_glide_res:A82_coul>
-39.9604190388234

> <r_glide_res:A82_hbond>
-0.0557529453132567

> <r_glide_res:A82_dist>
2.35350275016591

> <r_glide_res:A82_Eint>
-41.7540637130064

> <r_glide_res:A42_vdw>
2.22861043611467

> <r_glide_res:A42_coul>
-55.5095748784641

> <r_glide_res:A42_hbond>
-0.342503093463525

> <r_glide_res:A42_dist>
1.64747779474087

> <r_glide_res:A42_Eint>
-53.623467535813

> <r_glide_res:A16_vdw>
-0.641981162851915

> <r_glide_res:A16_coul>
-46.5217030090032

> <r_glide_res:A16_hbond>
-0.2

> <r_glide_res:A16_dist>
1.9338588926361

> <r_glide_res:A16_Eint>
-47.3636841718551

> <s_m_source_file>
ligprep_Nicaido_neutral.maegz

> <i_m_source_file_index>
15

> <i_lp_mmshare_version>
58128

> <i_f3d_flags>
0

> <s_lp_Force_Field>
S-OPLS

> <r_lp_Energy>
48.098991

> <b_lp_Chiralities_Consistent>
1

> <s_lp_Variant>
Cefaclor-1

> <s_epik_input>
UzFbQ0gyXUMoQ2wpPUMoQyg9TylbT0hdKU4oW0NAQEhdMTIpQyg9TylbQ0BIXTJbTkhdQyg9TylbQ0BASF0oW05IMl0pYzNbY0hdW2NIXVtjSF1bY0hdW2NIXTM=

> <s_epik_cmdline>
J2VwaWtfcHl0aG9uJywgJy1waHQnLCAnMC4wJywgJy1waCcsICc3LjQnLCAnLW50JywgJy1tYScsICc1MDAnLCAnLWltYWUnLCAnPGluZmlsZS5tYWU+JywgJy1vbWFlJywgJzxvdXRmaWxlLm1hZT4n

> <r_epik_Ionization_Penalty>
  0.1164

> <r_epik_Ionization_Penalty_Charging>
  0.0000

> <r_epik_Ionization_Penalty_Neutral>
  0.1164

> <r_epik_State_Penalty>
  0.1164

> <r_epik_Charging_Adjusted_Penalty>
0.116403072965043

> <i_epik_Tot_Q>
-1

> <i_epik_Tot_abs_Q>
1

> <s_epik_Chemistry_Notes>
This compound contains an acetal/aminal-like group ( X-CH(R)-Y where X, Y are N, S, or O) that may be acid/base labile, releasing an aldehyde.

> <s_m_subgroup_title>
glide-dock_Nicaido_neutral_pv1

> <s_m_subgroupid>
glide-dock_Nicaido_neutral_pv1

> <b_m_subgroup_collapsed>
0

$$$$
Ceftriaxone
                    3D
 Schrodinger Suite 2022-2.
 52 55  0  0  1  0            999 V2000
  -23.4177  -23.8975  -24.5455 C   0  0  0  0  0  0
  -23.2952  -24.2654  -23.1399 N   0  0  0  0  0  0
  -23.7191  -23.3775  -22.1078 C   0  0  0  0  0  0
  -24.5157  -21.8370  -22.7511 S   0  0  0  0  0  0
  -25.4339  -21.1656  -21.3143 C   0  0  0  0  0  0
  -26.9502  -21.1141  -21.5305 C   0  0  0  0  0  0
  -27.7296  -22.2254  -21.5060 C   0  0  0  0  0  0
  -29.1209  -22.2068  -21.6773 N   0  0  0  0  0  0
  -29.9223  -21.0188  -21.4715 C   0  0  2  0  0  0
  -31.1440  -21.8497  -21.9238 C   0  0  2  0  0  0
  -30.1831  -23.0701  -21.8787 C   0  0  0  0  0  0
  -30.2469  -24.2794  -21.9887 O   0  0  0  0  0  0
  -31.5726  -21.4561  -23.2657 N   0  0  0  0  0  0
  -32.2411  -22.2192  -24.1489 C   0  0  0  0  0  0
  -32.4913  -21.5583  -25.4938 C   0  0  0  0  0  0
  -32.1083  -20.1249  -25.5914 C   0  0  0  0  0  0
  -32.9749  -19.1343  -25.1957 C   0  0  0  0  0  0
  -32.2935  -17.5490  -25.4173 S   0  0  0  0  0  0
  -30.8385  -18.3048  -26.0488 C   0  0  0  0  0  0
  -29.7687  -17.5499  -26.4878 N   0  0  0  0  0  0
  -30.8807  -19.6382  -26.0592 N   0  0  0  0  0  0
  -32.9981  -22.2197  -26.4585 N   0  0  0  0  0  0
  -33.1695  -21.4516  -27.6213 O   0  0  0  0  0  0
  -33.9776  -22.1961  -28.5169 C   0  0  0  0  0  0
  -32.6103  -23.3714  -23.9174 O   0  0  0  0  0  0
  -29.1867  -19.6770  -22.4672 S   0  0  0  0  0  0
  -27.5151  -19.7100  -21.7456 C   0  0  0  0  0  0
  -27.1259  -23.6380  -21.3866 C   0  0  0  0  0  0
  -27.1744  -24.3495  -22.4134 O   0  5  0  0  0  0
  -26.6972  -23.9870  -20.2691 O   0  0  0  0  0  0
  -23.5802  -23.6158  -20.8346 N   0  0  0  0  0  0
  -23.0219  -24.8215  -20.4163 C   0  0  0  0  0  0
  -22.6100  -25.8593  -21.5048 C   0  0  0  0  0  0
  -22.1695  -26.9348  -21.0994 O   0  0  0  0  0  0
  -22.7695  -25.5498  -22.8173 N   0  5  0  0  0  0
  -22.8565  -25.1252  -19.2341 O   0  0  0  0  0  0
  -22.8587  -22.9853  -24.7600 H   0  0  0  0  0  0
  -23.0267  -24.6820  -25.1918 H   0  0  0  0  0  0
  -24.4623  -23.7425  -24.8135 H   0  0  0  0  0  0
  -25.0636  -20.1579  -21.1220 H   0  0  0  0  0  0
  -25.2246  -21.7212  -20.4023 H   0  0  0  0  0  0
  -29.9615  -20.7586  -20.4139 H   0  0  0  0  0  0
  -31.9424  -21.8520  -21.1797 H   0  0  0  0  0  0
  -31.2787  -20.5312  -23.5516 H   0  0  0  0  0  0
  -33.9718  -19.2374  -24.7919 H   0  0  0  0  0  0
  -28.8367  -17.9335  -26.4132 H   0  0  0  0  0  0
  -29.7970  -16.5490  -26.3080 H   0  0  0  0  0  0
  -34.1385  -21.6266  -29.4329 H   0  0  0  0  0  0
  -33.5081  -23.1429  -28.7879 H   0  0  0  0  0  0
  -34.9568  -22.4064  -28.0830 H   0  0  0  0  0  0
  -27.5328  -19.1885  -20.7884 H   0  0  0  0  0  0
  -26.8544  -19.1501  -22.4075 H   0  0  0  0  0  0
  1  2  1  0  0  0
  1 37  1  0  0  0
  1 38  1  0  0  0
  1 39  1  0  0  0
  2 35  1  0  0  0
  2  3  1  0  0  0
  3  4  1  0  0  0
  3 31  2  0  0  0
  4  5  1  0  0  0
  5  6  1  0  0  0
  5 40  1  0  0  0
  5 41  1  0  0  0
  6 27  1  0  0  0
  6  7  2  0  0  0
  7  8  1  0  0  0
  7 28  1  0  0  0
  8 11  1  0  0  0
  8  9  1  0  0  0
  9 10  1  0  0  0
  9 26  1  0  0  0
  9 42  1  0  0  0
 10 11  1  0  0  0
 10 13  1  0  0  0
 10 43  1  0  0  0
 11 12  2  0  0  0
 13 14  1  0  0  0
 13 44  1  0  0  0
 14 15  1  0  0  0
 14 25  2  0  0  0
 15 16  1  0  0  0
 15 22  2  3  0  0
 16 21  1  0  0  0
 16 17  2  0  0  0
 17 18  1  0  0  0
 17 45  1  0  0  0
 18 19  1  0  0  0
 19 20  1  0  0  0
 19 21  2  0  0  0
 20 46  1  0  0  0
 20 47  1  0  0  0
 22 23  1  0  0  0
 23 24  1  0  0  0
 24 48  1  0  0  0
 24 49  1  0  0  0
 24 50  1  0  0  0
 26 27  1  0  0  0
 27 51  1  0  0  0
 27 52  1  0  0  0
 28 29  1  0  0  0
 28 30  2  0  0  0
 31 32  1  0  0  0
 32 33  1  0  0  0
 32 36  2  0  0  0
 33 34  2  0  0  0
 33 35  1  0  0  0
M  CHG  2  29  -1  35  -1
M  END
> <s_m_entry_id>
27343

> <s_m_entry_name>
data_maestro.22

> <s_m_Source_Path>
C:\Users\olshana1\Git\GramNeg-Accumulation\Gram Negative Permeation - OmpF

> <s_m_Source_File>
data_maestro.csv

> <i_m_Source_File_Index>
22

> <s_m_job_name>
glide-dock_Nicaido_neutral

> <s_i_glide_gridfile>
3POX-grid

> <i_i_glide_lignum>
28

> <i_i_glide_rotatable_bonds>
9

> <r_i_docking_score>
-5.34608501822339

> <r_i_glide_ligand_efficiency>
-0.148502361617317

> <r_i_glide_ligand_efficiency_sa>
-0.490343993763702

> <r_i_glide_ligand_efficiency_ln>
-1.16637131645062

> <r_i_glide_gscore>
-5.34608501822339

> <r_i_glide_lipo>
0

> <r_i_glide_hbond>
-1.08704791287071

> <r_i_glide_metal>
0

> <r_i_glide_rewards>
0.00499728371963184

> <r_i_glide_evdw>
-29.4164123535156

> <r_i_glide_ecoul>
-16.9442691802979

> <r_i_glide_erotb>
0.472124986767549

> <r_i_glide_esite>
-0.723698381119402

> <r_i_glide_emodel>
-79.1583486562171

> <r_i_glide_energy>
-46.3606815338135

> <r_i_glide_einternal>
8.51532745361328

> <i_i_glide_confnum>
165

> <i_i_glide_posenum>
271

> <r_i_glide_eff_state_penalty>
0

> <r_glide_res:A132_vdw>
-1.92752247870645

> <r_glide_res:A132_coul>
-84.5942579233951

> <r_glide_res:A132_hbond>
-0.295499510533745

> <r_glide_res:A132_dist>
1.99457357888516

> <r_glide_res:A132_Eint>
-86.8172799126353

> <r_glide_res:A117_vdw>
-3.38916212279829

> <r_glide_res:A117_coul>
32.7960268617538

> <r_glide_res:A117_hbond>
0

> <r_glide_res:A117_dist>
2.36194331686351

> <r_glide_res:A117_Eint>
29.4068647389555

> <r_glide_res:A113_vdw>
-2.65777145721208

> <r_glide_res:A113_coul>
32.9454278707184

> <r_glide_res:A113_hbond>
0

> <r_glide_res:A113_dist>
2.17209118206934

> <r_glide_res:A113_Eint>
30.2876564135064

> <r_glide_res:A82_vdw>
3.05440518896651

> <r_glide_res:A82_coul>
-82.9134786930335

> <r_glide_res:A82_hbond>
-0.279478923991868

> <r_glide_res:A82_dist>
1.53318301249074

> <r_glide_res:A82_Eint>
-80.1385524280589

> <r_glide_res:A42_vdw>
-1.77650539692994

> <r_glide_res:A42_coul>
-52.6757284856899

> <r_glide_res:A42_hbond>
0

> <r_glide_res:A42_dist>
2.49071913776324

> <r_glide_res:A42_Eint>
-54.4522338826199

> <r_glide_res:A16_vdw>
-1.62647715881642

> <r_glide_res:A16_coul>
-43.9907374437867

> <r_glide_res:A16_hbond>
0

> <r_glide_res:A16_dist>
1.88292745637874

> <r_glide_res:A16_Eint>
-45.6172146026031

> <s_m_source_file>
ligprep_Nicaido_neutral.maegz

> <i_m_source_file_index>
22

> <i_lp_mmshare_version>
58128

> <i_f3d_flags>
0

> <s_lp_Force_Field>
S-OPLS

> <r_lp_Energy>
109.903222

> <b_lp_Chiralities_Consistent>
1

> <s_lp_Variant>
Ceftriaxone-1

> <s_epik_input>
W09IXWMobjEpYyg9TyluYyhuMVtDSDNdKVNbQ0gyXUMoPUMyQyg9TylbT0hdKVtDSDJdU1tDQEhdKE4yMylbQ0BIXShDMz1PKVtOSF1DKD1PKS9DKD1OL09bQ0gzXSljNFtjSF1zYyhuNClbTkgyXQ==

> <s_epik_cmdline>
J2VwaWtfcHl0aG9uJywgJy1waHQnLCAnMC4wJywgJy1waCcsICc3LjQnLCAnLW50JywgJy1tYScsICc1MDAnLCAnLWltYWUnLCAnPGluZmlsZS5tYWU+JywgJy1vbWFlJywgJzxvdXRmaWxlLm1hZT4n

> <r_lp_tautomer_probability>
1

> <r_epik_Ionization_Penalty>
  0.0014

> <r_epik_Ionization_Penalty_Charging>
  0.0010

> <r_epik_Ionization_Penalty_Neutral>
  0.0004

> <r_epik_State_Penalty>
  0.0000

> <r_epik_Charging_Adjusted_Penalty>
0.000994184415634904

> <i_epik_Tot_Q>
-2

> <i_epik_Tot_abs_Q>
2

> <s_epik_Chemistry_Notes>
This compound has an imine and may undergo hydrolysis. This compound contains an acetal/aminal-like group ( X-CH(R)-Y where X, Y are N, S, or O) that may be acid/base labile, releasing an aldehyde.

> <s_m_subgroup_title>
glide-dock_Nicaido_neutral_pv1

> <s_m_subgroupid>
glide-dock_Nicaido_neutral_pv1

> <b_m_subgroup_collapsed>
0

$$$$
Cefuroxime
                    3D
 Schrodinger Suite 2022-2.
 44 46  0  0  1  0            999 V2000
  -34.3083  -21.3291  -29.0921 C   0  0  0  0  0  0
  -33.5431  -20.8155  -28.0149 O   0  0  0  0  0  0
  -33.7335  -19.4272  -27.9839 N   0  0  0  0  0  0
  -33.0929  -18.7826  -27.0795 C   0  0  0  0  0  0
  -33.2645  -17.3278  -27.0627 C   0  0  0  0  0  0
  -33.4379  -16.3531  -26.1132 C   0  0  0  0  0  0
  -33.6393  -15.1315  -26.8153 C   0  0  0  0  0  0
  -33.5663  -15.4377  -28.1418 C   0  0  0  0  0  0
  -33.3429  -16.7654  -28.3083 O   0  0  0  0  0  0
  -32.1251  -19.3781  -26.0363 C   0  0  0  0  0  0
  -31.3281  -18.4820  -25.4106 N   0  0  0  0  0  0
  -30.1567  -18.7299  -24.5434 C   0  0  1  0  0  0
  -30.3990  -19.6109  -23.2983 C   0  0  1  0  0  0
  -29.1725  -20.3096  -23.6765 N   0  0  0  0  0  0
  -29.2316  -19.8843  -24.9859 C   0  0  0  0  0  0
  -28.7717  -20.3127  -26.0160 O   0  0  0  0  0  0
  -28.6278  -21.3291  -22.8707 C   0  0  0  0  0  0
  -28.2527  -22.7305  -23.5538 C   0  0  0  0  0  0
  -28.0334  -23.7204  -22.8118 O   0  5  0  0  0  0
  -28.2216  -22.7791  -24.8066 O   0  0  0  0  0  0
  -28.3746  -20.9946  -21.5780 C   0  0  0  0  0  0
  -28.6900  -19.5995  -21.0359 C   0  0  0  0  0  0
  -30.2686  -18.9079  -21.6191 S   0  0  0  0  0  0
  -27.5973  -21.8463  -20.5866 C   0  0  0  0  0  0
  -28.4730  -22.4050  -19.6286 O   0  0  0  0  0  0
  -28.1924  -23.5569  -19.0262 C   0  0  0  0  0  0
  -29.1685  -23.7899  -18.0916 N   0  0  0  0  0  0
  -27.2401  -24.2984  -19.2779 O   0  0  0  0  0  0
  -32.0419  -20.5919  -25.8437 O   0  0  0  0  0  0
  -34.2015  -22.4131  -29.1355 H   0  0  0  0  0  0
  -35.3696  -21.1051  -28.9715 H   0  0  0  0  0  0
  -33.9728  -20.9210  -30.0473 H   0  0  0  0  0  0
  -33.4419  -16.4995  -25.0422 H   0  0  0  0  0  0
  -33.8216  -14.1471  -26.4115 H   0  0  0  0  0  0
  -33.6551  -14.8642  -29.0529 H   0  0  0  0  0  0
  -31.4792  -17.5072  -25.6316 H   0  0  0  0  0  0
  -29.6232  -17.8121  -24.2901 H   0  0  0  0  0  0
  -31.2631  -20.2751  -23.3678 H   0  0  0  0  0  0
  -28.7346  -19.6173  -19.9459 H   0  0  0  0  0  0
  -27.8791  -18.9235  -21.3079 H   0  0  0  0  0  0
  -27.0000  -22.6045  -21.0864 H   0  0  0  0  0  0
  -26.8779  -21.2101  -20.0706 H   0  0  0  0  0  0
  -29.9054  -23.0745  -18.0133 H   0  0  0  0  0  0
  -29.0867  -24.5887  -17.4837 H   0  0  0  0  0  0
  1  2  1  0  0  0
  1 30  1  0  0  0
  1 31  1  0  0  0
  1 32  1  0  0  0
  2  3  1  0  0  0
  3  4  2  3  0  0
  4  5  1  0  0  0
  4 10  1  0  0  0
  5  9  1  0  0  0
  5  6  2  0  0  0
  6  7  1  0  0  0
  6 33  1  0  0  0
  7  8  2  0  0  0
  7 34  1  0  0  0
  8  9  1  0  0  0
  8 35  1  0  0  0
 10 11  1  0  0  0
 10 29  2  0  0  0
 11 12  1  0  0  0
 11 36  1  0  0  0
 12 15  1  0  0  0
 12 13  1  0  0  0
 12 37  1  0  0  0
 13 23  1  0  0  0
 13 14  1  0  0  0
 13 38  1  0  0  0
 14 15  1  0  0  0
 14 17  1  0  0  0
 15 16  2  0  0  0
 17 18  1  0  0  0
 17 21  2  0  0  0
 18 19  1  0  0  0
 18 20  2  0  0  0
 21 22  1  0  0  0
 21 24  1  0  0  0
 22 23  1  0  0  0
 22 39  1  0  0  0
 22 40  1  0  0  0
 24 25  1  0  0  0
 24 41  1  0  0  0
 24 42  1  0  0  0
 25 26  1  0  0  0
 26 27  1  0  0  0
 26 28  2  0  0  0
 27 43  1  0  0  0
 27 44  1  0  0  0
M  CHG  1  19  -1
M  END
> <s_m_entry_id>
27344

> <s_m_entry_name>
data_maestro.10

> <s_m_Source_Path>
C:\Users\olshana1\Git\GramNeg-Accumulation\Gram Negative Permeation - OmpF

> <s_m_Source_File>
data_maestro.csv

> <i_m_Source_File_Index>
10

> <s_m_job_name>
glide-dock_Nicaido_neutral

> <s_i_glide_gridfile>
3POX-grid

> <i_i_glide_lignum>
14

> <i_i_glide_rotatable_bonds>
9

> <r_i_docking_score>
-5.34209769918473

> <r_i_glide_ligand_efficiency>
-0.184210265489129

> <r_i_glide_ligand_efficiency_sa>
-0.565952297491064

> <r_i_glide_ligand_efficiency_ln>
-1.2232049092038

> <r_i_glide_gscore>
-5.34209769918473

> <r_i_glide_lipo>
-0.387799153380219

> <r_i_glide_hbond>
-0.798512236425163

> <r_i_glide_metal>
0

> <r_i_glide_rewards>
-0.520629824178329

> <r_i_glide_evdw>
-30.9057445526123

> <r_i_glide_ecoul>
-13.759747505188

> <r_i_glide_erotb>
0.663396273735242

> <r_i_glide_esite>
-0.689303405527452

> <r_i_glide_emodel>
-69.6923480906581

> <r_i_glide_energy>
-44.6654920578003

> <r_i_glide_einternal>
6.13988971710205

> <i_i_glide_confnum>
105

> <i_i_glide_posenum>
268

> <r_i_glide_eff_state_penalty>
0

> <r_glide_res:A132_vdw>
-1.56129825435501

> <r_glide_res:A132_coul>
-39.1937215309597

> <r_glide_res:A132_hbond>
-0.13486190724717

> <r_glide_res:A132_dist>
2.10463456469808

> <r_glide_res:A132_Eint>
-40.8898816925619

> <r_glide_res:A117_vdw>
-4.02903074803328

> <r_glide_res:A117_coul>
21.7977551481556

> <r_glide_res:A117_hbond>
0

> <r_glide_res:A117_dist>
2.33693649797073

> <r_glide_res:A117_Eint>
17.7687244001223

> <r_glide_res:A113_vdw>
-1.44037390272009

> <r_glide_res:A113_coul>
18.6678793023091

> <r_glide_res:A113_hbond>
-0.16

> <r_glide_res:A113_dist>
1.72417790719104

> <r_glide_res:A113_Eint>
17.0675053995891

> <r_glide_res:A82_vdw>
-1.04682496830315

> <r_glide_res:A82_coul>
-49.1817913008495

> <r_glide_res:A82_hbond>
-0.2

> <r_glide_res:A82_dist>
1.94445986397047

> <r_glide_res:A82_Eint>
-50.4286162691527

> <r_glide_res:A42_vdw>
-0.210835900950507

> <r_glide_res:A42_coul>
-52.2928825446507

> <r_glide_res:A42_hbond>
-0.303650329177993

> <r_glide_res:A42_dist>
1.93732202314651

> <r_glide_res:A42_Eint>
-52.8073687747792

> <r_glide_res:A16_vdw>
-2.63644344640961

> <r_glide_res:A16_coul>
-40.586598923971

> <r_glide_res:A16_hbond>
0

> <r_glide_res:A16_dist>
1.96747865673928

> <r_glide_res:A16_Eint>
-43.2230423703806

> <s_m_source_file>
ligprep_Nicaido_neutral.maegz

> <i_m_source_file_index>
10

> <i_lp_mmshare_version>
58128

> <i_f3d_flags>
0

> <s_lp_Force_Field>
S-OPLS

> <r_lp_Energy>
45.356438

> <b_lp_Chiralities_Consistent>
1

> <s_lp_Variant>
Cefuroxime-2

> <s_epik_input>
bzFbY0hdW2NIXVtjSF1jMS9DKD1OXE9bQ0gzXSlDKD1PKVtOSF1bQ0BASF0yQyg9TylOKFtDQEhdMjMpQyhDKD1PKVtPSF0pPUMoW0NIMl1TMylbQ0gyXU9DKD1PKVtOSDJd

> <s_epik_cmdline>
J2VwaWtfcHl0aG9uJywgJy1waHQnLCAnMC4wJywgJy1waCcsICc3LjQnLCAnLW50JywgJy1tYScsICc1MDAnLCAnLWltYWUnLCAnPGluZmlsZS5tYWU+JywgJy1vbWFlJywgJzxvdXRmaWxlLm1hZT4n

> <r_lp_tautomer_probability>
1

> <r_epik_Ionization_Penalty>
  0.0000

> <r_epik_Ionization_Penalty_Charging>
  0.0000

> <r_epik_Ionization_Penalty_Neutral>
  0.0000

> <r_epik_State_Penalty>
  0.0000

> <r_epik_Charging_Adjusted_Penalty>
8.57368987839538e-06

> <i_epik_Tot_Q>
-1

> <i_epik_Tot_abs_Q>
1

> <s_epik_Chemistry_Notes>
This compound has an ester and may undergo hydrolysis at high or low pH. This compound has an imine and may undergo hydrolysis. This compound contains an acetal/aminal-like group ( X-CH(R)-Y where X, Y are N, S, or O) that may be acid/base labile, releasing an aldehyde.

> <s_m_subgroup_title>
glide-dock_Nicaido_neutral_pv1

> <s_m_subgroupid>
glide-dock_Nicaido_neutral_pv1

> <b_m_subgroup_collapsed>
0

$$$$
BL-S217
                    3D
 Schrodinger Suite 2022-2.
 48 50  0  0  1  0            999 V2000
  -27.8619  -21.9484  -25.0645 O   0  0  0  0  0  0
  -27.2478  -21.0847  -24.4706 C   0  0  0  0  0  0
  -27.0898  -19.5368  -24.5142 C   0  0  2  0  0  0
  -26.4583  -19.7062  -23.1176 C   0  0  1  0  0  0
  -26.3523  -21.1244  -23.4133 N   0  0  0  0  0  0
  -25.7033  -22.0324  -22.5485 C   0  0  0  0  0  0
  -25.9691  -23.5492  -22.8102 C   0  0  0  0  0  0
  -27.1582  -23.9493  -22.8132 O   0  5  0  0  0  0
  -24.9624  -24.2725  -22.9851 O   0  0  0  0  0  0
  -24.9240  -21.6192  -21.5109 C   0  0  0  0  0  0
  -24.5898  -20.1549  -21.2401 C   0  0  0  0  0  0
  -24.7999  -19.1012  -22.6930 S   0  0  0  0  0  0
  -24.3440  -22.5533  -20.4527 C   0  0  0  0  0  0
  -25.0630  -22.4284  -19.2327 O   0  0  0  0  0  0
  -26.0375  -23.2992  -18.9114 C   0  0  0  0  0  0
  -26.7948  -22.8737  -17.6620 C   0  0  0  0  0  0
  -26.3191  -24.3367  -19.5177 O   0  0  0  0  0  0
  -28.3379  -18.7806  -24.4135 N   0  0  0  0  0  0
  -29.3753  -18.8133  -25.2623 C   0  0  0  0  0  0
  -30.6257  -18.0587  -24.8210 C   0  0  0  0  0  0
  -31.4347  -18.8969  -23.4282 S   0  0  0  0  0  0
  -33.1093  -18.3489  -23.3189 C   0  0  0  0  0  0
  -34.0090  -19.0631  -22.5030 C   0  0  0  0  0  0
  -35.3478  -18.6317  -22.4127 C   0  0  0  0  0  0
  -35.7580  -17.5254  -23.0827 N   0  3  0  0  0  0
  -37.1477  -17.0651  -22.9530 C   0  0  0  0  0  0
  -34.9133  -16.8144  -23.8703 C   0  0  0  0  0  0
  -33.5685  -17.2109  -24.0159 C   0  0  0  0  0  0
  -29.3794  -19.4425  -26.3222 O   0  0  0  0  0  0
  -26.3884  -19.1503  -25.2559 H   0  0  0  0  0  0
  -27.1567  -19.5377  -22.2928 H   0  0  0  0  0  0
  -25.2248  -19.7886  -20.4329 H   0  0  0  0  0  0
  -23.5557  -20.0616  -20.9073 H   0  0  0  0  0  0
  -24.3033  -23.5917  -20.7743 H   0  0  0  0  0  0
  -23.3082  -22.2665  -20.2706 H   0  0  0  0  0  0
  -27.6581  -23.5189  -17.4971 H   0  0  0  0  0  0
  -26.1451  -22.9291  -16.7894 H   0  0  0  0  0  0
  -27.1478  -21.8466  -17.7624 H   0  0  0  0  0  0
  -28.4206  -18.1940  -23.5919 H   0  0  0  0  0  0
  -31.3139  -17.9995  -25.6636 H   0  0  0  0  0  0
  -30.3679  -17.0400  -24.5335 H   0  0  0  0  0  0
  -33.6746  -19.9257  -21.9422 H   0  0  0  0  0  0
  -36.0801  -19.1313  -21.7940 H   0  0  0  0  0  0
  -37.7402  -17.8058  -22.4145 H   0  0  0  0  0  0
  -37.1422  -16.1195  -22.4097 H   0  0  0  0  0  0
  -37.5600  -16.9230  -23.9526 H   0  0  0  0  0  0
  -35.3242  -15.9383  -24.3511 H   0  0  0  0  0  0
  -32.8977  -16.6177  -24.6199 H   0  0  0  0  0  0
  1  2  2  0  0  0
  2  5  1  0  0  0
  2  3  1  0  0  0
  3  4  1  0  0  0
  3 18  1  0  0  0
  3 30  1  0  0  0
  4 12  1  0  0  0
  4  5  1  0  0  0
  4 31  1  0  0  0
  5  6  1  0  0  0
  6  7  1  0  0  0
  6 10  2  0  0  0
  7  8  1  0  0  0
  7  9  2  0  0  0
 10 11  1  0  0  0
 10 13  1  0  0  0
 11 12  1  0  0  0
 11 32  1  0  0  0
 11 33  1  0  0  0
 13 14  1  0  0  0
 13 34  1  0  0  0
 13 35  1  0  0  0
 14 15  1  0  0  0
 15 16  1  0  0  0
 15 17  2  0  0  0
 16 36  1  0  0  0
 16 37  1  0  0  0
 16 38  1  0  0  0
 18 19  1  0  0  0
 18 39  1  0  0  0
 19 20  1  0  0  0
 19 29  2  0  0  0
 20 21  1  0  0  0
 20 40  1  0  0  0
 20 41  1  0  0  0
 21 22  1  0  0  0
 22 28  1  0  0  0
 22 23  2  0  0  0
 23 24  1  0  0  0
 23 42  1  0  0  0
 24 25  2  0  0  0
 24 43  1  0  0  0
 25 26  1  0  0  0
 25 27  1  0  0  0
 26 44  1  0  0  0
 26 45  1  0  0  0
 26 46  1  0  0  0
 27 28  2  0  0  0
 27 47  1  0  0  0
 28 48  1  0  0  0
M  CHG  2   8  -1  25   1
M  END
> <s_m_entry_id>
27345

> <s_m_entry_name>
data_maestro.17

> <s_m_Source_Path>
C:\Users\olshana1\Git\GramNeg-Accumulation\Gram Negative Permeation - OmpF

> <s_m_Source_File>
data_maestro.csv

> <i_m_Source_File_Index>
17

> <s_m_job_name>
glide-dock_Nicaido_neutral

> <s_i_glide_gridfile>
3POX-grid

> <i_i_glide_lignum>
22

> <i_i_glide_rotatable_bonds>
9

> <r_i_docking_score>
-5.33627654658903

> <r_i_glide_ligand_efficiency>
-0.184009536089277

> <r_i_glide_ligand_efficiency_sa>
-0.565335593179182

> <r_i_glide_ligand_efficiency_ln>
-1.22187201287108

> <r_i_glide_gscore>
-5.33627654658903

> <r_i_glide_lipo>
-0.166145695327223

> <r_i_glide_hbond>
-0.711839565108768

> <r_i_glide_metal>
0

> <r_i_glide_rewards>
-0.533203683367176

> <r_i_glide_evdw>
-27.5485076904297

> <r_i_glide_ecoul>
-18.7589683532715

> <r_i_glide_erotb>
0.729326637690335

> <r_i_glide_esite>
-0.463143602963993

> <r_i_glide_emodel>
-78.943804314144

> <r_i_glide_energy>
-46.3074760437012

> <r_i_glide_einternal>
2.83421587944031

> <i_i_glide_confnum>
88

> <i_i_glide_posenum>
269

> <r_i_glide_eff_state_penalty>
0

> <r_glide_res:A132_vdw>
-1.60862407819634

> <r_glide_res:A132_coul>
-31.6959292743708

> <r_glide_res:A132_hbond>
-0.140973589948941

> <r_glide_res:A132_dist>
1.99864404582707

> <r_glide_res:A132_Eint>
-33.4455269425161

> <r_glide_res:A117_vdw>
-6.07581630717695

> <r_glide_res:A117_coul>
1.48107109768662

> <r_glide_res:A117_hbond>
-0.233694410197441

> <r_glide_res:A117_dist>
2.11734913765788

> <r_glide_res:A117_Eint>
-4.82843961968777

> <r_glide_res:A113_vdw>
-2.15419777678888

> <r_glide_res:A113_coul>
-2.63845243493343

> <r_glide_res:A113_hbond>
0

> <r_glide_res:A113_dist>
3.22294460622138

> <r_glide_res:A113_Eint>
-4.79265021172232

> <r_glide_res:A82_vdw>
5.0854348976001

> <r_glide_res:A82_coul>
-40.5879970616261

> <r_glide_res:A82_hbond>
-0.177171564962385

> <r_glide_res:A82_dist>
1.55434312992477

> <r_glide_res:A82_Eint>
-35.6797337289884

> <r_glide_res:A42_vdw>
-0.845919330378976

> <r_glide_res:A42_coul>
-27.9308865777408

> <r_glide_res:A42_hbond>
-0.16

> <r_glide_res:A42_dist>
1.82669327460696

> <r_glide_res:A42_Eint>
-28.9368059081198

> <r_glide_res:A16_vdw>
-0.844748163594898

> <r_glide_res:A16_coul>
-10.0001747015457

> <r_glide_res:A16_hbond>
0

> <r_glide_res:A16_dist>
2.6490049576269

> <r_glide_res:A16_Eint>
-10.8449228651406

> <s_m_source_file>
ligprep_Nicaido_neutral.maegz

> <i_m_source_file_index>
17

> <i_lp_mmshare_version>
58128

> <i_f3d_flags>
0

> <s_lp_Force_Field>
S-OPLS

> <r_lp_Energy>
45.233938

> <b_lp_Chiralities_Consistent>
1

> <s_lp_Variant>
BL-S217-1

> <s_epik_input>
W0NIM11DKD1PKU9bQ0gyXUMoW0NIMl1TMSk9QyhDKD1PKVtPSF0pTihbQ0BASF0xMilDKD1PKVtDQEhdMltOSF1DKD1PKVtDSDJdU2MzW2NIXVtjSF1bbitdKFtDSDNdKVtjSF1bY0hdMw==

> <s_epik_cmdline>
J2VwaWtfcHl0aG9uJywgJy1waHQnLCAnMC4wJywgJy1waCcsICc3LjQnLCAnLW50JywgJy1tYScsICc1MDAnLCAnLWltYWUnLCAnPGluZmlsZS5tYWU+JywgJy1vbWFlJywgJzxvdXRmaWxlLm1hZT4n

> <r_lp_tautomer_probability>
1

> <r_epik_Ionization_Penalty>
  0.0000

> <r_epik_Ionization_Penalty_Charging>
  0.0000

> <r_epik_Ionization_Penalty_Neutral>
  0.0000

> <r_epik_State_Penalty>
  0.0000

> <r_epik_Charging_Adjusted_Penalty>
6.14912740637116e-06

> <i_epik_Tot_Q>
0

> <i_epik_Tot_abs_Q>
2

> <s_epik_Chemistry_Notes>
This compound has an ester and may undergo hydrolysis at high or low pH. This compound contains an acetal/aminal-like group ( X-CH(R)-Y where X, Y are N, S, or O) that may be acid/base labile, releasing an aldehyde.

> <s_m_subgroup_title>
glide-dock_Nicaido_neutral_pv1

> <s_m_subgroupid>
glide-dock_Nicaido_neutral_pv1

> <b_m_subgroup_collapsed>
0

$$$$
Ceftizoxime
                    3D
 Schrodinger Suite 2022-2.
 37 39  0  0  1  0            999 V2000
  -33.0703  -16.3116  -26.6847 C   0  0  0  0  0  0
  -32.5711  -17.1203  -25.6356 O   0  0  0  0  0  0
  -31.3883  -17.7325  -26.0797 N   0  0  0  0  0  0
  -30.8001  -18.3799  -25.1542 C   0  0  0  0  0  0
  -31.3260  -18.5533  -23.7778 C   0  0  0  0  0  0
  -30.7689  -17.9496  -22.6733 C   0  0  0  0  0  0
  -31.6316  -18.3496  -21.2134 S   0  0  0  0  0  0
  -32.7098  -19.3497  -22.1717 C   0  0  0  0  0  0
  -33.7612  -20.0472  -21.6134 N   0  0  0  0  0  0
  -32.4245  -19.3627  -23.4697 N   0  0  0  0  0  0
  -29.5552  -19.1748  -25.4433 C   0  0  0  0  0  0
  -28.5721  -19.0141  -24.5406 N   0  0  0  0  0  0
  -27.3006  -19.7346  -24.5110 C   0  0  1  0  0  0
  -26.6738  -19.6794  -23.1070 C   0  0  1  0  0  0
  -26.6786  -21.1329  -23.1020 N   0  0  0  0  0  0
  -27.4402  -21.2587  -24.2569 C   0  0  0  0  0  0
  -27.9689  -22.1998  -24.8134 O   0  0  0  0  0  0
  -26.1469  -21.8614  -22.0124 C   0  0  0  0  0  0
  -26.5088  -23.3819  -21.8302 C   0  0  0  0  0  0
  -26.0516  -23.9496  -20.8134 O   0  5  0  0  0  0
  -27.1775  -23.9496  -22.7220 O   0  0  0  0  0  0
  -25.3052  -21.2794  -21.1234 C   0  0  0  0  0  0
  -24.8061  -19.8463  -21.1652 C   0  0  0  0  0  0
  -24.9658  -19.1277  -22.8135 S   0  0  0  0  0  0
  -29.4976  -19.9305  -26.4134 O   0  0  0  0  0  0
  -33.9985  -15.8379  -26.3655 H   0  0  0  0  0  0
  -32.3689  -15.5188  -26.9467 H   0  0  0  0  0  0
  -33.2833  -16.9024  -27.5767 H   0  0  0  0  0  0
  -29.9415  -17.2574  -22.6164 H   0  0  0  0  0  0
  -34.4323  -20.5366  -22.1841 H   0  0  0  0  0  0
  -33.9756  -19.9495  -20.6232 H   0  0  0  0  0  0
  -28.7110  -18.3478  -23.7938 H   0  0  0  0  0  0
  -26.6026  -19.4474  -25.2989 H   0  0  0  0  0  0
  -27.3465  -19.2898  -22.3384 H   0  0  0  0  0  0
  -24.9309  -21.8499  -20.2856 H   0  0  0  0  0  0
  -25.3706  -19.2504  -20.4473 H   0  0  0  0  0  0
  -23.7576  -19.8137  -20.8697 H   0  0  0  0  0  0
  1  2  1  0  0  0
  1 26  1  0  0  0
  1 27  1  0  0  0
  1 28  1  0  0  0
  2  3  1  0  0  0
  3  4  2  3  0  0
  4  5  1  0  0  0
  4 11  1  0  0  0
  5 10  1  0  0  0
  5  6  2  0  0  0
  6  7  1  0  0  0
  6 29  1  0  0  0
  7  8  1  0  0  0
  8  9  1  0  0  0
  8 10  2  0  0  0
  9 30  1  0  0  0
  9 31  1  0  0  0
 11 12  1  0  0  0
 11 25  2  0  0  0
 12 13  1  0  0  0
 12 32  1  0  0  0
 13 16  1  0  0  0
 13 14  1  0  0  0
 13 33  1  0  0  0
 14 24  1  0  0  0
 14 15  1  0  0  0
 14 34  1  0  0  0
 15 16  1  0  0  0
 15 18  1  0  0  0
 16 17  2  0  0  0
 18 19  1  0  0  0
 18 22  2  0  0  0
 19 20  1  0  0  0
 19 21  2  0  0  0
 22 23  1  0  0  0
 22 35  1  0  0  0
 23 24  1  0  0  0
 23 36  1  0  0  0
 23 37  1  0  0  0
M  CHG  1  20  -1
M  END
> <s_m_entry_id>
27346

> <s_m_entry_name>
data_maestro.5

> <s_m_Source_Path>
C:\Users\olshana1\Git\GramNeg-Accumulation\Gram Negative Permeation - OmpF

> <s_m_Source_File>
data_maestro.csv

> <i_m_Source_File_Index>
5

> <s_m_job_name>
glide-dock_Nicaido_neutral

> <s_i_glide_gridfile>
3POX-grid

> <i_i_glide_lignum>
5

> <i_i_glide_rotatable_bonds>
6

> <r_i_docking_score>
-5.33280278692165

> <r_i_glide_ligand_efficiency>
-0.213312111476866

> <r_i_glide_ligand_efficiency_sa>
-0.623728397064762

> <r_i_glide_ligand_efficiency_ln>
-1.26403407170398

> <r_i_glide_gscore>
-5.33280278692165

> <r_i_glide_lipo>
0

> <r_i_glide_hbond>
-0.968551001720381

> <r_i_glide_metal>
0

> <r_i_glide_rewards>
-0.801393766200168

> <r_i_glide_evdw>
-26.9609851837158

> <r_i_glide_ecoul>
-15.1959161758423

> <r_i_glide_erotb>
0.664075194683877

> <r_i_glide_esite>
-0.59949652812285

> <r_i_glide_emodel>
-64.1967959529374

> <r_i_glide_energy>
-42.1569013595581

> <r_i_glide_einternal>
7.36060762405396

> <i_i_glide_confnum>
37

> <i_i_glide_posenum>
152

> <r_i_glide_eff_state_penalty>
0

> <r_glide_res:A132_vdw>
-0.0171188888593139

> <r_glide_res:A132_coul>
-47.1347065379714

> <r_glide_res:A132_hbond>
-0.2

> <r_glide_res:A132_dist>
1.77875362306541

> <r_glide_res:A132_Eint>
-47.3518254268307

> <r_glide_res:A117_vdw>
-6.82694172051135

> <r_glide_res:A117_coul>
16.8002306895855

> <r_glide_res:A117_hbond>
-0.00979954138396394

> <r_glide_res:A117_dist>
2.48266236661168

> <r_glide_res:A117_Eint>
9.96348942769016

> <r_glide_res:A113_vdw>
-1.6728329568383

> <r_glide_res:A113_coul>
20.4584588472791

> <r_glide_res:A113_hbond>
-0.32

> <r_glide_res:A113_dist>
1.90407683866164

> <r_glide_res:A113_Eint>
18.4656258904408

> <r_glide_res:A82_vdw>
2.38452185597458

> <r_glide_res:A82_coul>
-50.1318213422059

> <r_glide_res:A82_hbond>
-0.2

> <r_glide_res:A82_dist>
1.60450995664576

> <r_glide_res:A82_Eint>
-47.9472994862314

> <r_glide_res:A42_vdw>
-1.118302547252

> <r_glide_res:A42_coul>
-38.8815740396976

> <r_glide_res:A42_hbond>
-0.16

> <r_glide_res:A42_dist>
1.92484030781778

> <r_glide_res:A42_Eint>
-40.1598765869496

> <r_glide_res:A16_vdw>
-0.967918731188607

> <r_glide_res:A16_coul>
-31.062107269184

> <r_glide_res:A16_hbond>
-0.0787514603364167

> <r_glide_res:A16_dist>
2.24874509574615

> <r_glide_res:A16_Eint>
-32.108777460709

> <s_m_source_file>
ligprep_Nicaido_neutral.maegz

> <i_m_source_file_index>
5

> <i_lp_mmshare_version>
58128

> <i_f3d_flags>
0

> <s_lp_Force_Field>
S-OPLS

> <r_lp_Energy>
52.616387

> <b_lp_Chiralities_Consistent>
1

> <s_lp_Variant>
Ceftizoxime-1

> <s_epik_input>
W05IMl1jKG4xKXNbY0hdYzEvQyg9TlxPW0NIM10pQyg9TylbTkhdW0NAQEhdMkMoPU8pTihbQ0BIXTIzKUMoQyg9TylbT0hdKT1bQ0hdW0NIMl1TMw==

> <s_epik_cmdline>
J2VwaWtfcHl0aG9uJywgJy1waHQnLCAnMC4wJywgJy1waCcsICc3LjQnLCAnLW50JywgJy1tYScsICc1MDAnLCAnLWltYWUnLCAnPGluZmlsZS5tYWU+JywgJy1vbWFlJywgJzxvdXRmaWxlLm1hZT4n

> <r_lp_tautomer_probability>
1

> <r_epik_Ionization_Penalty>
  0.0005

> <r_epik_Ionization_Penalty_Charging>
  0.0000

> <r_epik_Ionization_Penalty_Neutral>
  0.0005

> <r_epik_State_Penalty>
  0.0000

> <r_epik_Charging_Adjusted_Penalty>
4.86746471452517e-05

> <i_epik_Tot_Q>
-1

> <i_epik_Tot_abs_Q>
1

> <s_epik_Chemistry_Notes>
This compound has an imine and may undergo hydrolysis. This compound contains an acetal/aminal-like group ( X-CH(R)-Y where X, Y are N, S, or O) that may be acid/base labile, releasing an aldehyde.

> <s_m_subgroup_title>
glide-dock_Nicaido_neutral_pv1

> <s_m_subgroupid>
glide-dock_Nicaido_neutral_pv1

> <b_m_subgroup_collapsed>
0

$$$$
Cyclacillin
                    3D
 Schrodinger Suite 2022-2.
 46 48  0  0  1  0            999 V2000
  -21.8819  -22.8180  -23.1786 C   0  0  0  0  0  0
  -22.9598  -22.4995  -24.2357 C   0  0  0  0  0  0
  -24.2097  -23.4489  -24.2098 C   0  0  2  0  0  0
  -25.1628  -22.7634  -23.3509 N   0  0  0  0  0  0
  -25.3036  -21.3182  -23.3456 C   0  0  2  0  0  0
  -23.6158  -20.8307  -23.8264 S   0  0  0  0  0  0
  -25.8255  -21.4309  -21.9013 C   0  0  2  0  0  0
  -25.8673  -22.9527  -22.1824 C   0  0  0  0  0  0
  -26.2643  -23.9495  -21.6162 O   0  0  0  0  0  0
  -27.1060  -20.7315  -21.6562 N   0  0  0  0  0  0
  -28.2894  -20.8647  -22.2949 C   0  0  0  0  0  0
  -29.4402  -19.8505  -22.0100 C   0  0  0  0  0  0
  -29.5751  -18.9434  -23.2623 C   0  0  0  0  0  0
  -30.7702  -17.9861  -23.1778 C   0  0  0  0  0  0
  -32.0813  -18.7511  -22.9512 C   0  0  0  0  0  0
  -31.9935  -19.6563  -21.7134 C   0  0  0  0  0  0
  -30.7789  -20.6058  -21.7829 C   0  0  0  0  0  0
  -29.1668  -19.0174  -20.8135 N   0  3  0  0  0  0
  -28.4690  -21.7390  -23.1453 O   0  0  0  0  0  0
  -23.9690  -24.9556  -23.9378 C   0  0  0  0  0  0
  -24.3688  -25.7570  -24.8142 O   0  5  0  0  0  0
  -23.4165  -25.3162  -22.8770 O   0  0  0  0  0  0
  -22.3174  -22.4821  -25.6347 C   0  0  0  0  0  0
  -21.3697  -23.7562  -23.3899 H   0  0  0  0  0  0
  -22.3166  -22.8883  -22.1810 H   0  0  0  0  0  0
  -21.1194  -22.0389  -23.1484 H   0  0  0  0  0  0
  -24.6749  -23.3968  -25.1951 H   0  0  0  0  0  0
  -26.0334  -20.9602  -24.0753 H   0  0  0  0  0  0
  -25.0548  -21.1500  -21.1813 H   0  0  0  0  0  0
  -27.0374  -20.0083  -20.9576 H   0  0  0  0  0  0
  -28.6708  -18.3551  -23.4186 H   0  0  0  0  0  0
  -29.6874  -19.5553  -24.1587 H   0  0  0  0  0  0
  -30.6107  -17.2745  -22.3672 H   0  0  0  0  0  0
  -30.8381  -17.3904  -24.0893 H   0  0  0  0  0  0
  -32.9079  -18.0476  -22.8390 H   0  0  0  0  0  0
  -32.3059  -19.3562  -23.8298 H   0  0  0  0  0  0
  -31.9357  -19.0419  -20.8143 H   0  0  0  0  0  0
  -32.9107  -20.2372  -21.6140 H   0  0  0  0  0  0
  -30.9546  -21.3248  -22.5853 H   0  0  0  0  0  0
  -30.7304  -21.1902  -20.8595 H   0  0  0  0  0  0
  -29.8613  -18.2844  -20.7687 H   0  0  0  0  0  0
  -29.2804  -19.5522  -19.9568 H   0  0  0  0  0  0
  -21.9537  -23.4705  -25.9197 H   0  0  0  0  0  0
  -23.0286  -22.1609  -26.3964 H   0  0  0  0  0  0
  -21.4710  -21.7945  -25.6741 H   0  0  0  0  0  0
  -28.2636  -18.5710  -20.8637 H   0  0  0  0  0  0
  1  2  1  0  0  0
  1 24  1  0  0  0
  1 25  1  0  0  0
  1 26  1  0  0  0
  2  6  1  0  0  0
  2  3  1  0  0  0
  2 23  1  0  0  0
  3  4  1  0  0  0
  3 20  1  0  0  0
  3 27  1  0  0  0
  4  8  1  0  0  0
  4  5  1  0  0  0
  5  6  1  0  0  0
  5  7  1  0  0  0
  5 28  1  0  0  0
  7  8  1  0  0  0
  7 10  1  0  0  0
  7 29  1  0  0  0
  8  9  2  0  0  0
 10 11  1  0  0  0
 10 30  1  0  0  0
 11 12  1  0  0  0
 11 19  2  0  0  0
 12 17  1  0  0  0
 12 13  1  0  0  0
 12 18  1  0  0  0
 13 14  1  0  0  0
 13 31  1  0  0  0
 13 32  1  0  0  0
 14 15  1  0  0  0
 14 33  1  0  0  0
 14 34  1  0  0  0
 15 16  1  0  0  0
 15 35  1  0  0  0
 15 36  1  0  0  0
 16 17  1  0  0  0
 16 37  1  0  0  0
 16 38  1  0  0  0
 17 39  1  0  0  0
 17 40  1  0  0  0
 18 41  1  0  0  0
 18 42  1  0  0  0
 18 46  1  0  0  0
 20 21  1  0  0  0
 20 22  2  0  0  0
 23 43  1  0  0  0
 23 44  1  0  0  0
 23 45  1  0  0  0
M  CHG  2  18   1  21  -1
M  END
> <s_m_entry_id>
27347

> <s_m_entry_name>
data_maestro.19

> <s_m_Source_Path>
C:\Users\olshana1\Git\GramNeg-Accumulation\Gram Negative Permeation - OmpF

> <s_m_Source_File>
data_maestro.csv

> <i_m_Source_File_Index>
19

> <s_m_job_name>
glide-dock_Nicaido_neutral

> <s_i_glide_gridfile>
3POX-grid

> <i_i_glide_lignum>
24

> <i_i_glide_rotatable_bonds>
4

> <r_i_docking_score>
-5.32949981831913

> <r_i_glide_ligand_efficiency>
-0.23171738340518

> <r_i_glide_ligand_efficiency_sa>
-0.65897341463486

> <r_i_glide_ligand_efficiency_ln>
-1.28872138130212

> <r_i_glide_gscore>
-5.53279981831913

> <r_i_glide_lipo>
0

> <r_i_glide_hbond>
-0.47388702032402

> <r_i_glide_metal>
0

> <r_i_glide_rewards>
-1.24352319877563

> <r_i_glide_evdw>
-21.1979198455811

> <r_i_glide_ecoul>
-18.8074436187744

> <r_i_glide_erotb>
0.487675558125352

> <r_i_glide_esite>
-0.422052622249615

> <r_i_glide_emodel>
-68.4534524384524

> <r_i_glide_energy>
-40.0053634643555

> <r_i_glide_einternal>
6.25335597991943

> <i_i_glide_confnum>
14

> <i_i_glide_posenum>
345

> <r_i_glide_eff_state_penalty>
0.2033

> <r_glide_res:A132_vdw>
-0.831457236998785

> <r_glide_res:A132_coul>
-22.8302470104027

> <r_glide_res:A132_hbond>
-0.143847110735635

> <r_glide_res:A132_dist>
1.93404207851611

> <r_glide_res:A132_Eint>
-23.8055513581371

> <r_glide_res:A117_vdw>
-3.44049535205805

> <r_glide_res:A117_coul>
-11.1146096950825

> <r_glide_res:A117_hbond>
0

> <r_glide_res:A117_dist>
2.29963327149058

> <r_glide_res:A117_Eint>
-14.5551050471406

> <r_glide_res:A113_vdw>
-2.37076153718647

> <r_glide_res:A113_coul>
-33.092057551409

> <r_glide_res:A113_hbond>
-0.135030367983614

> <r_glide_res:A113_dist>
2.09217942536022

> <r_glide_res:A113_Eint>
-35.5978494565791

> <r_glide_res:A82_vdw>
-1.0188698300135

> <r_glide_res:A82_coul>
-28.1731875623682

> <r_glide_res:A82_hbond>
-0.189318129388562

> <r_glide_res:A82_dist>
1.87810839923566

> <r_glide_res:A82_Eint>
-29.3813755217702

> <r_glide_res:A42_vdw>
-1.98481310584342

> <r_glide_res:A42_coul>
-12.5504997602931

> <r_glide_res:A42_hbond>
0

> <r_glide_res:A42_dist>
2.07169384424834

> <r_glide_res:A42_Eint>
-14.5353128661365

> <r_glide_res:A16_vdw>
-0.209833116706194

> <r_glide_res:A16_coul>
1.39844680462572

> <r_glide_res:A16_hbond>
0

> <r_glide_res:A16_dist>
4.31651362085678

> <r_glide_res:A16_Eint>
1.18861368791953

> <s_m_source_file>
ligprep_Nicaido_neutral.maegz

> <i_m_source_file_index>
19

> <i_lp_mmshare_version>
58128

> <i_f3d_flags>
0

> <s_lp_Force_Field>
S-OPLS

> <r_lp_Energy>
30.580191

> <b_lp_Chiralities_Consistent>
1

> <s_lp_Variant>
Cyclacillin-1

> <s_epik_input>
W09IXUMoPU8pW0NAQEhdMUMoW0NIM10pKFtDSDNdKVNbQ0BASF0oTjEyKVtDQEhdKEMyPU8pW05IXUMoPU8pQzMoW05IMl0pW0NIMl1bQ0gyXVtDSDJdW0NIMl1bQ0gyXTM=

> <s_epik_cmdline>
J2VwaWtfcHl0aG9uJywgJy1waHQnLCAnMC4wJywgJy1waCcsICc3LjQnLCAnLW50JywgJy1tYScsICc1MDAnLCAnLWltYWUnLCAnPGluZmlsZS5tYWU+JywgJy1vbWFlJywgJzxvdXRmaWxlLm1hZT4n

> <r_epik_Ionization_Penalty>
  0.2033

> <r_epik_Ionization_Penalty_Charging>
  0.2033

> <r_epik_Ionization_Penalty_Neutral>
  0.0000

> <r_epik_State_Penalty>
  0.2033

> <r_epik_Charging_Adjusted_Penalty>
0.406545099244061

> <i_epik_Tot_Q>
0

> <i_epik_Tot_abs_Q>
2

> <s_epik_Chemistry_Notes>
This compound contains an acetal/aminal-like group ( X-CH(R)-Y where X, Y are N, S, or O) that may be acid/base labile, releasing an aldehyde.

> <s_m_subgroup_title>
glide-dock_Nicaido_neutral_pv1

> <s_m_subgroupid>
glide-dock_Nicaido_neutral_pv1

> <b_m_subgroup_collapsed>
0

$$$$
Cephalexin
                    3D
 Schrodinger Suite 2022-2.
 40 42  0  0  1  0            999 V2000
  -27.5697  -21.7933  -18.9880 C   0  0  0  0  0  0
  -27.0817  -21.2315  -20.3192 C   0  0  0  0  0  0
  -26.9142  -21.9295  -21.4755 C   0  0  0  0  0  0
  -26.5826  -21.1867  -22.6253 N   0  0  0  0  0  0
  -25.4003  -20.3305  -22.6121 C   0  0  1  0  0  0
  -25.8460  -19.8699  -24.0115 C   0  0  2  0  0  0
  -26.6650  -21.1940  -24.0095 C   0  0  0  0  0  0
  -27.1719  -21.9491  -24.8134 O   0  0  0  0  0  0
  -24.7013  -19.7213  -24.9292 N   0  0  0  0  0  0
  -23.9825  -20.6419  -25.6015 C   0  0  0  0  0  0
  -22.7335  -20.1524  -26.3668 C   0  0  2  0  0  0
  -21.6000  -20.4275  -25.4329 C   0  0  0  0  0  0
  -20.7767  -21.5649  -25.6090 C   0  0  0  0  0  0
  -19.6984  -21.8368  -24.7443 C   0  0  0  0  0  0
  -19.4264  -20.9729  -23.6687 C   0  0  0  0  0  0
  -20.2351  -19.8406  -23.4661 C   0  0  0  0  0  0
  -21.3039  -19.5729  -24.3423 C   0  0  0  0  0  0
  -22.7697  -18.7513  -26.8000 N   0  0  0  0  0  0
  -24.2513  -21.8436  -25.6138 O   0  0  0  0  0  0
  -25.3865  -19.1967  -21.1697 S   0  0  0  0  0  0
  -26.8849  -19.7205  -20.2880 C   0  0  0  0  0  0
  -27.1260  -23.4919  -21.6160 C   0  0  0  0  0  0
  -27.5690  -23.9487  -22.6966 O   0  5  0  0  0  0
  -26.7654  -24.1980  -20.6478 O   0  0  0  0  0  0
  -26.7709  -21.7604  -18.2462 H   0  0  0  0  0  0
  -28.3947  -21.1825  -18.6147 H   0  0  0  0  0  0
  -27.9477  -22.8121  -19.0427 H   0  0  0  0  0  0
  -24.4893  -20.9363  -22.6203 H   0  0  0  0  0  0
  -26.4589  -18.9675  -23.9643 H   0  0  0  0  0  0
  -24.3760  -18.7649  -25.0157 H   0  0  0  0  0  0
  -22.6365  -20.7667  -27.2637 H   0  0  0  0  0  0
  -20.9735  -22.2439  -26.4251 H   0  0  0  0  0  0
  -19.0802  -22.7068  -24.9079 H   0  0  0  0  0  0
  -18.5986  -21.1734  -23.0043 H   0  0  0  0  0  0
  -20.0332  -19.1687  -22.6448 H   0  0  0  0  0  0
  -21.9093  -18.6936  -24.1731 H   0  0  0  0  0  0
  -22.7407  -18.6688  -27.8063 H   0  0  0  0  0  0
  -23.6045  -18.2547  -26.4992 H   0  0  0  0  0  0
  -27.7601  -19.2370  -20.7232 H   0  0  0  0  0  0
  -26.8051  -19.3674  -19.2595 H   0  0  0  0  0  0
  1  2  1  0  0  0
  1 25  1  0  0  0
  1 26  1  0  0  0
  1 27  1  0  0  0
  2 21  1  0  0  0
  2  3  2  0  0  0
  3  4  1  0  0  0
  3 22  1  0  0  0
  4  7  1  0  0  0
  4  5  1  0  0  0
  5  6  1  0  0  0
  5 20  1  0  0  0
  5 28  1  0  0  0
  6  7  1  0  0  0
  6  9  1  0  0  0
  6 29  1  0  0  0
  7  8  2  0  0  0
  9 10  1  0  0  0
  9 30  1  0  0  0
 10 11  1  0  0  0
 10 19  2  0  0  0
 11 12  1  0  0  0
 11 18  1  0  0  0
 11 31  1  0  0  0
 12 17  1  0  0  0
 12 13  2  0  0  0
 13 14  1  0  0  0
 13 32  1  0  0  0
 14 15  2  0  0  0
 14 33  1  0  0  0
 15 16  1  0  0  0
 15 34  1  0  0  0
 16 17  2  0  0  0
 16 35  1  0  0  0
 17 36  1  0  0  0
 18 37  1  0  0  0
 18 38  1  0  0  0
 20 21  1  0  0  0
 21 39  1  0  0  0
 21 40  1  0  0  0
 22 23  1  0  0  0
 22 24  2  0  0  0
M  CHG  1  23  -1
M  END
> <s_m_entry_id>
27348

> <s_m_entry_name>
data_maestro.14

> <s_m_Source_Path>
C:\Users\olshana1\Git\GramNeg-Accumulation\Gram Negative Permeation - OmpF

> <s_m_Source_File>
data_maestro.csv

> <i_m_Source_File_Index>
14

> <s_m_job_name>
glide-dock_Nicaido_neutral

> <s_i_glide_gridfile>
3POX-grid

> <i_i_glide_lignum>
19

> <i_i_glide_rotatable_bonds>
5

> <r_i_docking_score>
-5.32630150705311

> <r_i_glide_ligand_efficiency>
-0.221929229460546

> <r_i_glide_ligand_efficiency_sa>
-0.640154670978105

> <r_i_glide_ligand_efficiency_ln>
-1.27482835868813

> <r_i_glide_gscore>
-5.44150150705311

> <r_i_glide_lipo>
-0.0285351308338964

> <r_i_glide_hbond>
-0.993548793752714

> <r_i_glide_metal>
0

> <r_i_glide_rewards>
-1.04709208041888

> <r_i_glide_evdw>
-23.3284797668457

> <r_i_glide_ecoul>
-15.2215003967285

> <r_i_glide_erotb>
0.475363118437828

> <r_i_glide_esite>
-0.398039572633887

> <r_i_glide_emodel>
-59.8097363350272

> <r_i_glide_energy>
-38.5499801635742

> <r_i_glide_einternal>
7.35304737091064

> <i_i_glide_confnum>
19

> <i_i_glide_posenum>
209

> <r_i_glide_eff_state_penalty>
0.1152

> <r_glide_res:A132_vdw>
1.91523030663512

> <r_glide_res:A132_coul>
-50.9982042424369

> <r_glide_res:A132_hbond>
-0.338266111854107

> <r_glide_res:A132_dist>
1.74759724286778

> <r_glide_res:A132_Eint>
-49.4212400476559

> <r_glide_res:A117_vdw>
-3.86652245589824

> <r_glide_res:A117_coul>
6.91778859779937

> <r_glide_res:A117_hbond>
-0.303237865208955

> <r_glide_res:A117_dist>
1.99362866591837

> <r_glide_res:A117_Eint>
2.74802827669217

> <r_glide_res:A113_vdw>
-1.45372290425042

> <r_glide_res:A113_coul>
25.1001433507938

> <r_glide_res:A113_hbond>
0

> <r_glide_res:A113_dist>
2.81310107796422

> <r_glide_res:A113_Eint>
23.6464204465434

> <r_glide_res:A82_vdw>
1.20999645357238

> <r_glide_res:A82_coul>
-50.5915562884659

> <r_glide_res:A82_hbond>
-0.2

> <r_glide_res:A82_dist>
1.66358681066778

> <r_glide_res:A82_Eint>
-49.5815598348935

> <r_glide_res:A42_vdw>
0.0721139419994908

> <r_glide_res:A42_coul>
-40.6612203312485

> <r_glide_res:A42_hbond>
-0.152044816689652

> <r_glide_res:A42_dist>
1.73756530294346

> <r_glide_res:A42_Eint>
-40.7411512059386

> <r_glide_res:A16_vdw>
-0.205950128626056

> <r_glide_res:A16_coul>
-20.7730904454237

> <r_glide_res:A16_hbond>
0

> <r_glide_res:A16_dist>
4.61424849912048

> <r_glide_res:A16_Eint>
-20.9790405740498

> <s_m_source_file>
ligprep_Nicaido_neutral.maegz

> <i_m_source_file_index>
14

> <i_lp_mmshare_version>
58128

> <i_f3d_flags>
0

> <s_lp_Force_Field>
S-OPLS

> <r_lp_Energy>
47.820483

> <b_lp_Chiralities_Consistent>
1

> <s_lp_Variant>
Cephalexin-1

> <s_epik_input>
W09IXUMoPU8pQzE9QyhbQ0gzXSlbQ0gyXVNbQ0BASF0oTjEyKVtDQEhdKEMyPU8pW05IXUMoPU8pW0NAQEhdKFtOSDJdKWMzW2NIXVtjSF1bY0hdW2NIXVtjSF0z

> <s_epik_cmdline>
J2VwaWtfcHl0aG9uJywgJy1waHQnLCAnMC4wJywgJy1waCcsICc3LjQnLCAnLW50JywgJy1tYScsICc1MDAnLCAnLWltYWUnLCAnPGluZmlsZS5tYWU+JywgJy1vbWFlJywgJzxvdXRmaWxlLm1hZT4n

> <r_epik_Ionization_Penalty>
  0.1152

> <r_epik_Ionization_Penalty_Charging>
  0.0000

> <r_epik_Ionization_Penalty_Neutral>
  0.1152

> <r_epik_State_Penalty>
  0.1152

> <r_epik_Charging_Adjusted_Penalty>
0.115182589938214

> <i_epik_Tot_Q>
-1

> <i_epik_Tot_abs_Q>
1

> <s_epik_Chemistry_Notes>
This compound contains an acetal/aminal-like group ( X-CH(R)-Y where X, Y are N, S, or O) that may be acid/base labile, releasing an aldehyde.

> <s_m_subgroup_title>
glide-dock_Nicaido_neutral_pv1

> <s_m_subgroupid>
glide-dock_Nicaido_neutral_pv1

> <b_m_subgroup_collapsed>
0

$$$$
Nocardicin B
                    3D
 Schrodinger Suite 2022-2.
 59 61  0  0  1  0            999 V2000
  -28.5597  -22.7460  -24.8134 O   0  0  0  0  0  0
  -29.2755  -22.3932  -23.8994 C   0  0  0  0  0  0
  -30.7685  -22.0945  -23.7520 C   0  0  2  0  0  0
  -30.4800  -22.0569  -22.2498 C   0  0  0  0  0  0
  -29.0447  -22.1387  -22.5648 N   0  0  0  0  0  0
  -27.8709  -22.1274  -21.6794 C   0  0  2  0  0  0
  -26.9127  -21.0165  -22.0040 C   0  0  0  0  0  0
  -26.4546  -20.1654  -20.9687 C   0  0  0  0  0  0
  -25.5710  -19.0981  -21.2232 C   0  0  0  0  0  0
  -25.1429  -18.8409  -22.5378 C   0  0  0  0  0  0
  -25.5666  -19.6751  -23.5819 C   0  0  0  0  0  0
  -26.4237  -20.7548  -23.3097 C   0  0  0  0  0  0
  -24.3354  -17.7787  -22.8133 O   0  0  0  0  0  0
  -27.0524  -23.4314  -21.7081 C   0  0  0  0  0  0
  -26.7486  -23.9500  -20.6123 O   0  5  0  0  0  0
  -26.7740  -23.9495  -22.8132 O   0  0  0  0  0  0
  -31.5816  -23.2293  -24.1831 N   0  0  0  0  0  0
  -31.7720  -23.5379  -25.4784 C   0  0  0  0  0  0
  -32.4349  -24.8852  -25.6989 C   0  0  0  0  0  0
  -32.8586  -25.0842  -27.1098 C   0  0  0  0  0  0
  -33.9550  -24.3576  -27.6216 C   0  0  0  0  0  0
  -34.3372  -24.4870  -28.9688 C   0  0  0  0  0  0
  -33.6314  -25.3560  -29.8346 C   0  0  0  0  0  0
  -32.5291  -26.0725  -29.3237 C   0  0  0  0  0  0
  -32.1495  -25.9493  -27.9718 C   0  0  0  0  0  0
  -33.9593  -25.5496  -31.1599 O   0  0  0  0  0  0
  -35.2951  -25.2784  -31.5833 C   0  0  0  0  0  0
  -36.2927  -26.2842  -30.9666 C   0  0  0  0  0  0
  -37.7611  -26.0644  -31.3987 C   0  0  2  0  0  0
  -38.7621  -26.9183  -30.6010 C   0  0  0  0  0  0
  -39.9539  -26.5484  -30.6456 O   0  5  0  0  0  0
  -38.3629  -27.9496  -30.0135 O   0  0  0  0  0  0
  -37.9722  -26.4027  -32.8134 N   0  3  0  0  0  0
  -32.5629  -25.7366  -24.7553 N   0  0  0  0  0  0
  -33.2139  -26.9321  -25.2100 O   0  0  0  0  0  0
  -31.3950  -22.8234  -26.4132 O   0  0  0  0  0  0
  -31.0858  -21.1282  -24.1476 H   0  0  0  0  0  0
  -30.7745  -21.1209  -21.7706 H   0  0  0  0  0  0
  -30.8553  -22.9155  -21.6888 H   0  0  0  0  0  0
  -28.2547  -22.0017  -20.6650 H   0  0  0  0  0  0
  -26.7957  -20.3233  -19.9552 H   0  0  0  0  0  0
  -25.2538  -18.4556  -20.4155 H   0  0  0  0  0  0
  -25.2380  -19.4855  -24.5940 H   0  0  0  0  0  0
  -26.7001  -21.3857  -24.1341 H   0  0  0  0  0  0
  -24.3689  -17.5418  -23.7422 H   0  0  0  0  0  0
  -31.9428  -23.8575  -23.4777 H   0  0  0  0  0  0
  -34.5076  -23.6848  -26.9801 H   0  0  0  0  0  0
  -35.1783  -23.9056  -29.3123 H   0  0  0  0  0  0
  -31.9836  -26.7426  -29.9721 H   0  0  0  0  0  0
  -31.3113  -26.5228  -27.6027 H   0  0  0  0  0  0
  -35.3052  -25.3820  -32.6691 H   0  0  0  0  0  0
  -35.5787  -24.2444  -31.3891 H   0  0  0  0  0  0
  -36.2402  -26.2188  -29.8797 H   0  0  0  0  0  0
  -35.9791  -27.2955  -31.2133 H   0  0  0  0  0  0
  -38.0161  -25.0135  -31.2546 H   0  0  0  0  0  0
  -38.9088  -26.1284  -33.0731 H   0  0  0  0  0  0
  -37.2997  -25.9490  -33.4223 H   0  0  0  0  0  0
  -33.0471  -26.9429  -26.1434 H   0  0  0  0  0  0
  -37.8890  -27.4032  -32.9126 H   0  0  0  0  0  0
  1  2  2  0  0  0
  2  5  1  0  0  0
  2  3  1  0  0  0
  3  4  1  0  0  0
  3 17  1  0  0  0
  3 37  1  0  0  0
  4  5  1  0  0  0
  4 38  1  0  0  0
  4 39  1  0  0  0
  5  6  1  0  0  0
  6  7  1  0  0  0
  6 14  1  0  0  0
  6 40  1  0  0  0
  7 12  1  0  0  0
  7  8  2  0  0  0
  8  9  1  0  0  0
  8 41  1  0  0  0
  9 10  2  0  0  0
  9 42  1  0  0  0
 10 11  1  0  0  0
 10 13  1  0  0  0
 11 12  2  0  0  0
 11 43  1  0  0  0
 12 44  1  0  0  0
 13 45  1  0  0  0
 14 15  1  0  0  0
 14 16  2  0  0  0
 17 18  1  0  0  0
 17 46  1  0  0  0
 18 19  1  0  0  0
 18 36  2  0  0  0
 19 20  1  0  0  0
 19 34  2  3  0  0
 20 25  1  0  0  0
 20 21  2  0  0  0
 21 22  1  0  0  0
 21 47  1  0  0  0
 22 23  2  0  0  0
 22 48  1  0  0  0
 23 24  1  0  0  0
 23 26  1  0  0  0
 24 25  2  0  0  0
 24 49  1  0  0  0
 25 50  1  0  0  0
 26 27  1  0  0  0
 27 28  1  0  0  0
 27 51  1  0  0  0
 27 52  1  0  0  0
 28 29  1  0  0  0
 28 53  1  0  0  0
 28 54  1  0  0  0
 29 30  1  0  0  0
 29 33  1  0  0  0
 29 55  1  0  0  0
 30 31  1  0  0  0
 30 32  2  0  0  0
 33 56  1  0  0  0
 33 57  1  0  0  0
 33 59  1  0  0  0
 34 35  1  0  0  0
 35 58  1  0  0  0
M  CHG  3  15  -1  31  -1  33   1
M  END
> <s_m_entry_id>
27349

> <s_m_entry_name>
data_maestro.29

> <s_m_Source_Path>
C:\Users\olshana1\Git\GramNeg-Accumulation\Gram Negative Permeation - OmpF

> <s_m_Source_File>
data_maestro.csv

> <i_m_Source_File_Index>
29

> <s_m_job_name>
glide-dock_Nicaido_neutral

> <s_i_glide_gridfile>
3POX-grid

> <i_i_glide_lignum>
36

> <i_i_glide_rotatable_bonds>
14

> <r_i_docking_score>
-5.31347394731349

> <r_i_glide_ligand_efficiency>
-0.147596498536486

> <r_i_glide_ligand_efficiency_sa>
-0.487352899776913

> <r_i_glide_ligand_efficiency_ln>
-1.1592564618274

> <r_i_glide_gscore>
-5.31347394731349

> <r_i_glide_lipo>
-0.186831921437954

> <r_i_glide_hbond>
-1.25422394986564

> <r_i_glide_metal>
0

> <r_i_glide_rewards>
0.0501345330194747

> <r_i_glide_evdw>
-29.0356006622314

> <r_i_glide_ecoul>
-18.4772605895996

> <r_i_glide_erotb>
0.900147327125679

> <r_i_glide_esite>
-0.599330814603544

> <r_i_glide_emodel>
-78.9764176789825

> <r_i_glide_energy>
-47.5128612518311

> <r_i_glide_einternal>
8.06991958618164

> <i_i_glide_confnum>
405

> <i_i_glide_posenum>
270

> <r_i_glide_eff_state_penalty>
0

> <r_glide_res:A132_vdw>
-1.08748281212472

> <r_glide_res:A132_coul>
-49.060659912503

> <r_glide_res:A132_hbond>
-0.28032729460604

> <r_glide_res:A132_dist>
1.96598534030607

> <r_glide_res:A132_Eint>
-50.4284700192337

> <r_glide_res:A117_vdw>
-1.54283229169034

> <r_glide_res:A117_coul>
13.7335062052657

> <r_glide_res:A117_hbond>
-0.16

> <r_glide_res:A117_dist>
1.79535658123983

> <r_glide_res:A117_Eint>
12.0306739135754

> <r_glide_res:A113_vdw>
-1.4141787902516

> <r_glide_res:A113_coul>
21.9507048210241

> <r_glide_res:A113_hbond>
0

> <r_glide_res:A113_dist>
3.354281793822

> <r_glide_res:A113_Eint>
20.5365260307725

> <r_glide_res:A82_vdw>
1.13129057208814

> <r_glide_res:A82_coul>
-48.9969826927874

> <r_glide_res:A82_hbond>
-0.2

> <r_glide_res:A82_dist>
1.60862842501964

> <r_glide_res:A82_Eint>
-48.0656921206993

> <r_glide_res:A42_vdw>
-3.378215920312

> <r_glide_res:A42_coul>
-36.9663405731701

> <r_glide_res:A42_hbond>
-0.244787496712979

> <r_glide_res:A42_dist>
2.04824851499247

> <r_glide_res:A42_Eint>
-40.589343990195

> <r_glide_res:A16_vdw>
-3.11373362091654

> <r_glide_res:A16_coul>
-24.5493387366355

> <r_glide_res:A16_hbond>
0

> <r_glide_res:A16_dist>
2.625072668435

> <r_glide_res:A16_Eint>
-27.663072357552

> <s_m_source_file>
ligprep_Nicaido_neutral.maegz

> <i_m_source_file_index>
29

> <i_lp_mmshare_version>
58128

> <i_f3d_flags>
0

> <s_lp_Force_Field>
S-OPLS

> <r_lp_Energy>
60.848016

> <b_lp_Chiralities_Consistent>
1

> <s_lp_Variant>
Nocardicin B-1

> <s_epik_input>
W2NIXTFbY0hdYyhbT0hdKVtjSF1bY0hdYzFbQ0BIXShDKD1PKVtPSF0pTjJbQ0gyXVtDQEBIXShDMj1PKVtOSF1DKD1PKS9DKD1OL1tPSF0pYzNbY0hdW2NIXWMoW2NIXVtjSF0zKU9bQ0gyXVtDSDJdW0NAQEhdKFtOSDJdKUMoPU8pW09IXQ==

> <s_epik_cmdline>
J2VwaWtfcHl0aG9uJywgJy1waHQnLCAnMC4wJywgJy1waCcsICc3LjQnLCAnLW50JywgJy1tYScsICc1MDAnLCAnLWltYWUnLCAnPGluZmlsZS5tYWU+JywgJy1vbWFlJywgJzxvdXRmaWxlLm1hZT4n

> <r_lp_tautomer_probability>
1

> <r_epik_Ionization_Penalty>
  0.0116

> <r_epik_Ionization_Penalty_Charging>
  0.0086

> <r_epik_Ionization_Penalty_Neutral>
  0.0030

> <r_epik_State_Penalty>
  0.0000

> <r_epik_Charging_Adjusted_Penalty>
0.0085560600321308

> <i_epik_Tot_Q>
-1

> <i_epik_Tot_abs_Q>
3

> <s_epik_Chemistry_Notes>
This compound has an imine and may undergo hydrolysis.

> <s_m_subgroup_title>
glide-dock_Nicaido_neutral_pv1

> <s_m_subgroupid>
glide-dock_Nicaido_neutral_pv1

> <b_m_subgroup_collapsed>
0

$$$$
Cefamandole
                    3D
 Schrodinger Suite 2022-2.
 48 51  0  0  1  0            999 V2000
  -24.3695  -21.8713  -15.9965 C   0  0  0  0  0  0
  -23.9613  -22.7531  -17.0711 N   0  0  0  0  0  0
  -24.1483  -22.6935  -18.3959 C   0  0  0  0  0  0
  -24.9586  -21.3679  -19.2184 S   0  0  0  0  0  0
  -26.6666  -21.9740  -19.1076 C   0  0  0  0  0  0
  -27.5100  -21.4568  -20.2670 C   0  0  0  0  0  0
  -27.7633  -22.1520  -21.4159 C   0  0  0  0  0  0
  -28.6164  -21.6327  -22.4102 N   0  0  0  0  0  0
  -29.6124  -20.6180  -22.1276 C   0  0  2  0  0  0
  -30.0364  -20.7035  -23.6067 C   0  0  2  0  0  0
  -28.9163  -21.7646  -23.7592 C   0  0  0  0  0  0
  -28.4453  -22.4401  -24.6542 O   0  0  0  0  0  0
  -29.7971  -19.4621  -24.3415 N   0  0  0  0  0  0
  -29.8484  -19.3617  -25.6784 C   0  0  0  0  0  0
  -29.7297  -17.9576  -26.2920 C   0  0  2  0  0  0
  -31.0769  -17.5608  -26.9003 C   0  0  0  0  0  0
  -31.3141  -17.6163  -28.2940 C   0  0  0  0  0  0
  -32.5792  -17.2692  -28.8131 C   0  0  0  0  0  0
  -33.6090  -16.8499  -27.9506 C   0  0  0  0  0  0
  -33.3804  -16.7896  -26.5636 C   0  0  0  0  0  0
  -32.1239  -17.1499  -26.0434 C   0  0  0  0  0  0
  -28.6460  -17.9495  -27.2079 O   0  0  0  0  0  0
  -30.0078  -20.3446  -26.4078 O   0  0  0  0  0  0
  -28.7687  -19.1906  -21.4054 S   0  0  0  0  0  0
  -28.0298  -20.0437  -19.9887 C   0  0  0  0  0  0
  -27.2036  -23.5935  -21.7201 C   0  0  0  0  0  0
  -26.1170  -23.9492  -21.2140 O   0  5  0  0  0  0
  -27.9263  -24.3495  -22.4134 O   0  0  0  0  0  0
  -23.5945  -23.7436  -18.9921 N   0  0  0  0  0  0
  -23.0328  -24.4593  -17.9532 N   0  0  0  0  0  0
  -23.2292  -23.8649  -16.8137 N   0  0  0  0  0  0
  -25.1685  -21.2093  -16.3294 H   0  0  0  0  0  0
  -24.7369  -22.4594  -15.1536 H   0  0  0  0  0  0
  -23.5218  -21.2674  -15.6706 H   0  0  0  0  0  0
  -27.0983  -21.6322  -18.1661 H   0  0  0  0  0  0
  -26.6827  -23.0593  -19.0405 H   0  0  0  0  0  0
  -30.3771  -20.9985  -21.4467 H   0  0  0  0  0  0
  -31.0499  -21.0901  -23.7176 H   0  0  0  0  0  0
  -29.6078  -18.6372  -23.7878 H   0  0  0  0  0  0
  -29.5135  -17.2316  -25.5104 H   0  0  0  0  0  0
  -30.5258  -17.9193  -28.9671 H   0  0  0  0  0  0
  -32.7686  -17.3133  -29.8764 H   0  0  0  0  0  0
  -34.5720  -16.5741  -28.3506 H   0  0  0  0  0  0
  -34.1660  -16.4657  -25.8962 H   0  0  0  0  0  0
  -31.9584  -17.0932  -24.9761 H   0  0  0  0  0  0
  -27.9427  -17.3949  -26.8580 H   0  0  0  0  0  0
  -28.7686  -20.1046  -19.1925 H   0  0  0  0  0  0
  -27.2209  -19.4157  -19.6146 H   0  0  0  0  0  0
  1  2  1  0  0  0
  1 32  1  0  0  0
  1 33  1  0  0  0
  1 34  1  0  0  0
  2 31  1  0  0  0
  2  3  1  0  0  0
  3  4  1  0  0  0
  3 29  2  0  0  0
  4  5  1  0  0  0
  5  6  1  0  0  0
  5 35  1  0  0  0
  5 36  1  0  0  0
  6 25  1  0  0  0
  6  7  2  0  0  0
  7  8  1  0  0  0
  7 26  1  0  0  0
  8 11  1  0  0  0
  8  9  1  0  0  0
  9 10  1  0  0  0
  9 24  1  0  0  0
  9 37  1  0  0  0
 10 11  1  0  0  0
 10 13  1  0  0  0
 10 38  1  0  0  0
 11 12  2  0  0  0
 13 14  1  0  0  0
 13 39  1  0  0  0
 14 15  1  0  0  0
 14 23  2  0  0  0
 15 16  1  0  0  0
 15 22  1  0  0  0
 15 40  1  0  0  0
 16 21  1  0  0  0
 16 17  2  0  0  0
 17 18  1  0  0  0
 17 41  1  0  0  0
 18 19  2  0  0  0
 18 42  1  0  0  0
 19 20  1  0  0  0
 19 43  1  0  0  0
 20 21  2  0  0  0
 20 44  1  0  0  0
 21 45  1  0  0  0
 22 46  1  0  0  0
 24 25  1  0  0  0
 25 47  1  0  0  0
 25 48  1  0  0  0
 26 27  1  0  0  0
 26 28  2  0  0  0
 29 30  1  0  0  0
 30 31  2  0  0  0
M  CHG  1  27  -1
M  END
> <s_m_entry_id>
27350

> <s_m_entry_name>
data_maestro.9

> <s_m_Source_Path>
C:\Users\olshana1\Git\GramNeg-Accumulation\Gram Negative Permeation - OmpF

> <s_m_Source_File>
data_maestro.csv

> <i_m_Source_File_Index>
9

> <s_m_job_name>
glide-dock_Nicaido_neutral

> <s_i_glide_gridfile>
3POX-grid

> <i_i_glide_lignum>
12

> <i_i_glide_rotatable_bonds>
9

> <r_i_docking_score>
-5.30649540412489

> <r_i_glide_ligand_efficiency>
-0.171177271100803

> <r_i_glide_ligand_efficiency_sa>
-0.537732966949696

> <r_i_glide_ligand_efficiency_ln>
-1.19677733818383

> <r_i_glide_gscore>
-5.30649540412489

> <r_i_glide_lipo>
-0.0206652896520433

> <r_i_glide_hbond>
-0.739090508409583

> <r_i_glide_metal>
0

> <r_i_glide_rewards>
-0.262106901238295

> <r_i_glide_evdw>
-31.8654499053955

> <r_i_glide_ecoul>
-18.1371021270752

> <r_i_glide_erotb>
0.567285116635731

> <r_i_glide_esite>
-0.538080007129648

> <r_i_glide_emodel>
-76.3311041296911

> <r_i_glide_energy>
-50.0025520324707

> <r_i_glide_einternal>
7.66334295272827

> <i_i_glide_confnum>
113

> <i_i_glide_posenum>
224

> <r_i_glide_eff_state_penalty>
0

> <r_glide_res:A132_vdw>
0.312032961340128

> <r_glide_res:A132_coul>
-48.3339220075428

> <r_glide_res:A132_hbond>
-0.217138246629544

> <r_glide_res:A132_dist>
1.80702312657367

> <r_glide_res:A132_Eint>
-48.2390272928323

> <r_glide_res:A117_vdw>
-2.73976046098644

> <r_glide_res:A117_coul>
13.9472212275965

> <r_glide_res:A117_hbond>
0

> <r_glide_res:A117_dist>
1.8474013600778

> <r_glide_res:A117_Eint>
11.2074607666101

> <r_glide_res:A113_vdw>
-2.17890719186155

> <r_glide_res:A113_coul>
16.5857607995905

> <r_glide_res:A113_hbond>
0

> <r_glide_res:A113_dist>
2.19664580063525

> <r_glide_res:A113_Eint>
14.4068536077289

> <r_glide_res:A82_vdw>
1.12713470715691

> <r_glide_res:A82_coul>
-51.6325447468345

> <r_glide_res:A82_hbond>
-0.253032287775461

> <r_glide_res:A82_dist>
1.70054493248243

> <r_glide_res:A82_Eint>
-50.7584423274531

> <r_glide_res:A42_vdw>
-1.58213030319634

> <r_glide_res:A42_coul>
-39.8861482198448

> <r_glide_res:A42_hbond>
-0.137983726248723

> <r_glide_res:A42_dist>
2.26312584498414

> <r_glide_res:A42_Eint>
-41.6062622492899

> <r_glide_res:A16_vdw>
-0.479970589543672

> <r_glide_res:A16_coul>
-35.1716593073356

> <r_glide_res:A16_hbond>
-0.130936247755855

> <r_glide_res:A16_dist>
1.91767923102123

> <r_glide_res:A16_Eint>
-35.7825661446351

> <s_m_source_file>
ligprep_Nicaido_neutral.maegz

> <i_m_source_file_index>
9

> <i_lp_mmshare_version>
58128

> <i_f3d_flags>
0

> <s_lp_Force_Field>
S-OPLS

> <r_lp_Energy>
50.610726

> <b_lp_Chiralities_Consistent>
1

> <s_lp_Variant>
Cefamandole-1

> <s_epik_input>
bjFubmMobjFbQ0gzXSlTW0NIMl1DKD1DMkMoPU8pW09IXSlbQ0gyXVNbQ0BIXShOMjMpW0NASF0oQzM9TylbTkhdQyg9TylbQ0BASF0oW09IXSljNFtjSF1bY0hdW2NIXVtjSF1bY0hdNA==

> <s_epik_cmdline>
J2VwaWtfcHl0aG9uJywgJy1waHQnLCAnMC4wJywgJy1waCcsICc3LjQnLCAnLW50JywgJy1tYScsICc1MDAnLCAnLWltYWUnLCAnPGluZmlsZS5tYWU+JywgJy1vbWFlJywgJzxvdXRmaWxlLm1hZT4n

> <r_lp_tautomer_probability>
1

> <r_epik_Ionization_Penalty>
  0.0002

> <r_epik_Ionization_Penalty_Charging>
  0.0000

> <r_epik_Ionization_Penalty_Neutral>
  0.0002

> <r_epik_State_Penalty>
  0.0000

> <r_epik_Charging_Adjusted_Penalty>
8.65070171415913e-06

> <i_epik_Tot_Q>
-1

> <i_epik_Tot_abs_Q>
1

> <s_epik_Chemistry_Notes>
This compound contains an acetal/aminal-like group ( X-CH(R)-Y where X, Y are N, S, or O) that may be acid/base labile, releasing an aldehyde.

> <s_m_subgroup_title>
glide-dock_Nicaido_neutral_pv1

> <s_m_subgroupid>
glide-dock_Nicaido_neutral_pv1

> <b_m_subgroup_collapsed>
0

$$$$
Cefazolin
                    3D
 Schrodinger Suite 2022-2.
 42 45  0  0  1  0            999 V2000
  -37.0930  -15.6231  -23.6375 C   0  0  0  0  0  0
  -35.8990  -16.5074  -23.7591 C   0  0  0  0  0  0
  -35.9037  -17.7857  -23.3699 N   0  0  0  0  0  0
  -34.6698  -18.3937  -23.5583 N   0  0  0  0  0  0
  -33.7565  -17.5579  -24.0707 C   0  0  0  0  0  0
  -34.3694  -15.9496  -24.4201 S   0  0  0  0  0  0
  -32.0652  -17.9510  -24.4140 S   0  0  0  0  0  0
  -31.9824  -19.6823  -23.8528 C   0  0  0  0  0  0
  -30.6261  -20.0537  -23.2603 C   0  0  0  0  0  0
  -29.7301  -20.8965  -23.8361 C   0  0  0  0  0  0
  -28.6211  -21.3090  -23.0786 N   0  0  0  0  0  0
  -27.7920  -20.3401  -22.3850 C   0  0  2  0  0  0
  -26.8912  -21.5133  -21.9467 C   0  0  2  0  0  0
  -27.7890  -22.3918  -22.8498 C   0  0  0  0  0  0
  -27.7994  -23.5494  -23.2140 O   0  0  0  0  0  0
  -26.9799  -21.8242  -20.5156 N   0  0  0  0  0  0
  -26.5832  -22.9850  -19.9671 C   0  0  0  0  0  0
  -26.5778  -23.0911  -18.4377 C   0  0  0  0  0  0
  -25.2655  -23.4860  -17.9457 N   0  0  0  0  0  0
  -24.3419  -22.7986  -17.2705 C   0  0  0  0  0  0
  -23.2599  -23.5307  -17.0396 N   0  0  0  0  0  0
  -23.5725  -24.7497  -17.6135 N   0  0  0  0  0  0
  -24.7685  -24.7398  -18.1303 N   0  0  0  0  0  0
  -26.2161  -23.9495  -20.6437 O   0  0  0  0  0  0
  -28.7694  -19.3475  -21.2126 S   0  0  0  0  0  0
  -30.4704  -19.5548  -21.8233 C   0  0  0  0  0  0
  -29.9184  -21.5559  -25.2570 C   0  0  0  0  0  0
  -29.5692  -22.7495  -25.3805 O   0  5  0  0  0  0
  -30.3683  -20.8443  -26.1829 O   0  0  0  0  0  0
  -38.0013  -16.1777  -23.8724 H   0  0  0  0  0  0
  -37.1679  -15.2409  -22.6194 H   0  0  0  0  0  0
  -37.0107  -14.7800  -24.3242 H   0  0  0  0  0  0
  -32.2856  -20.3305  -24.6723 H   0  0  0  0  0  0
  -32.7069  -19.8672  -23.0613 H   0  0  0  0  0  0
  -27.2916  -19.6855  -23.1022 H   0  0  0  0  0  0
  -25.8668  -21.3936  -22.3010 H   0  0  0  0  0  0
  -27.3393  -21.0895  -19.9188 H   0  0  0  0  0  0
  -27.3116  -23.8312  -18.1163 H   0  0  0  0  0  0
  -26.8569  -22.1404  -17.9799 H   0  0  0  0  0  0
  -24.4545  -21.7689  -16.9638 H   0  0  0  0  0  0
  -30.9690  -18.5922  -21.7047 H   0  0  0  0  0  0
  -30.9890  -20.2548  -21.1682 H   0  0  0  0  0  0
  1  2  1  0  0  0
  1 30  1  0  0  0
  1 31  1  0  0  0
  1 32  1  0  0  0
  2  6  1  0  0  0
  2  3  2  0  0  0
  3  4  1  0  0  0
  4  5  2  0  0  0
  5  6  1  0  0  0
  5  7  1  0  0  0
  7  8  1  0  0  0
  8  9  1  0  0  0
  8 33  1  0  0  0
  8 34  1  0  0  0
  9 26  1  0  0  0
  9 10  2  0  0  0
 10 11  1  0  0  0
 10 27  1  0  0  0
 11 14  1  0  0  0
 11 12  1  0  0  0
 12 13  1  0  0  0
 12 25  1  0  0  0
 12 35  1  0  0  0
 13 14  1  0  0  0
 13 16  1  0  0  0
 13 36  1  0  0  0
 14 15  2  0  0  0
 16 17  1  0  0  0
 16 37  1  0  0  0
 17 18  1  0  0  0
 17 24  2  0  0  0
 18 19  1  0  0  0
 18 38  1  0  0  0
 18 39  1  0  0  0
 19 23  1  0  0  0
 19 20  1  0  0  0
 20 21  2  0  0  0
 20 40  1  0  0  0
 21 22  1  0  0  0
 22 23  2  0  0  0
 25 26  1  0  0  0
 26 41  1  0  0  0
 26 42  1  0  0  0
 27 28  1  0  0  0
 27 29  2  0  0  0
M  CHG  1  28  -1
M  END
> <s_m_entry_id>
27351

> <s_m_entry_name>
data_maestro.2

> <s_m_Source_Path>
C:\Users\olshana1\Git\GramNeg-Accumulation\Gram Negative Permeation - OmpF

> <s_m_Source_File>
data_maestro.csv

> <i_m_Source_File_Index>
2

> <s_m_job_name>
glide-dock_Nicaido_neutral

> <s_i_glide_gridfile>
3POX-grid

> <i_i_glide_lignum>
2

> <i_i_glide_rotatable_bonds>
8

> <r_i_docking_score>
-5.29714997389102

> <r_i_glide_ligand_efficiency>
-0.182660343927277

> <r_i_glide_ligand_efficiency_sa>
-0.561190447403438

> <r_i_glide_ligand_efficiency_ln>
-1.21291301988751

> <r_i_glide_gscore>
-5.29714997389102

> <r_i_glide_lipo>
-0.111624872689655

> <r_i_glide_hbond>
-0.695895476758381

> <r_i_glide_metal>
0

> <r_i_glide_rewards>
-0.316069943696341

> <r_i_glide_evdw>
-33.2520904541016

> <r_i_glide_ecoul>
-16.1337890625

> <r_i_glide_erotb>
0.585623573400065

> <r_i_glide_esite>
-0.676510372066634

> <r_i_glide_emodel>
-75.930147772846

> <r_i_glide_energy>
-49.3858795166016

> <r_i_glide_einternal>
5.90413284301758

> <i_i_glide_confnum>
147

> <i_i_glide_posenum>
237

> <r_i_glide_eff_state_penalty>
0

> <r_glide_res:A132_vdw>
-1.23830809194683

> <r_glide_res:A132_coul>
-33.0144069153485

> <r_glide_res:A132_hbond>
-0.16

> <r_glide_res:A132_dist>
1.81255696145127

> <r_glide_res:A132_Eint>
-34.4127150072953

> <r_glide_res:A117_vdw>
-2.71830812603042

> <r_glide_res:A117_coul>
22.299804116254

> <r_glide_res:A117_hbond>
0

> <r_glide_res:A117_dist>
2.98492422348962

> <r_glide_res:A117_Eint>
19.5814959902235

> <r_glide_res:A113_vdw>
-2.80469445853709

> <r_glide_res:A113_coul>
17.5395820278477

> <r_glide_res:A113_hbond>
0

> <r_glide_res:A113_dist>
2.54136319732835

> <r_glide_res:A113_Eint>
14.7348875693106

> <r_glide_res:A82_vdw>
-0.502323573330679

> <r_glide_res:A82_coul>
-40.9302572703763

> <r_glide_res:A82_hbond>
-0.157926029183755

> <r_glide_res:A82_dist>
1.86771261926273

> <r_glide_res:A82_Eint>
-41.5905068728907

> <r_glide_res:A42_vdw>
1.39909911358646

> <r_glide_res:A42_coul>
-49.1533031732462

> <r_glide_res:A42_hbond>
-0.2

> <r_glide_res:A42_dist>
1.6280429657852

> <r_glide_res:A42_Eint>
-47.9542040596598

> <r_glide_res:A16_vdw>
-0.158449870360769

> <r_glide_res:A16_coul>
-48.3188837571625

> <r_glide_res:A16_hbond>
-0.177969447574626

> <r_glide_res:A16_dist>
1.96377148725759

> <r_glide_res:A16_Eint>
-48.6553030750979

> <s_m_source_file>
ligprep_Nicaido_neutral.maegz

> <i_m_source_file_index>
2

> <i_lp_mmshare_version>
58128

> <i_f3d_flags>
0

> <s_lp_Force_Field>
S-OPLS

> <r_lp_Energy>
37.420105

> <b_lp_Chiralities_Consistent>
1

> <s_lp_Variant>
Cefazolin-1

> <s_epik_input>
W0NIM11jMW5uYyhzMSlTW0NIMl1DKD1DMkMoPU8pW09IXSlbQ0gyXVNbQ0BIXShOMjMpW0NASF0oQzM9TylbTkhdQyg9TylbQ0gyXW40W2NIXW5ubjQ=

> <s_epik_cmdline>
J2VwaWtfcHl0aG9uJywgJy1waHQnLCAnMC4wJywgJy1waCcsICc3LjQnLCAnLW50JywgJy1tYScsICc1MDAnLCAnLWltYWUnLCAnPGluZmlsZS5tYWU+JywgJy1vbWFlJywgJzxvdXRmaWxlLm1hZT4n

> <r_lp_tautomer_probability>
1

> <r_epik_Ionization_Penalty>
  0.0000

> <r_epik_Ionization_Penalty_Charging>
  0.0000

> <r_epik_Ionization_Penalty_Neutral>
  0.0000

> <r_epik_State_Penalty>
  0.0000

> <r_epik_Charging_Adjusted_Penalty>
8.33047029083912e-06

> <i_epik_Tot_Q>
-1

> <i_epik_Tot_abs_Q>
1

> <s_epik_Chemistry_Notes>
This compound contains an acetal/aminal-like group ( X-CH(R)-Y where X, Y are N, S, or O) that may be acid/base labile, releasing an aldehyde.

> <s_m_subgroup_title>
glide-dock_Nicaido_neutral_pv1

> <s_m_subgroupid>
glide-dock_Nicaido_neutral_pv1

> <b_m_subgroup_collapsed>
0

$$$$
Cephalosporin C
                    3D
 Schrodinger Suite 2022-2.
 45 46  0  0  1  0            999 V2000
  -36.0602  -20.7832  -25.2107 O   0  0  0  0  0  0
  -35.4062  -19.9331  -25.8147 C   0  0  0  0  0  0
  -34.0953  -19.6993  -25.6678 O   0  0  0  0  0  0
  -33.3481  -20.4763  -24.7476 C   0  0  0  0  0  0
  -31.8862  -20.0519  -24.7628 C   0  0  0  0  0  0
  -30.8841  -20.7912  -25.3162 C   0  0  0  0  0  0
  -29.5466  -20.3398  -25.3012 N   0  0  0  0  0  0
  -29.1724  -18.9564  -25.0567 C   0  0  2  0  0  0
  -27.6969  -19.3900  -25.2022 C   0  0  2  0  0  0
  -28.2539  -20.8286  -25.2671 C   0  0  0  0  0  0
  -27.8020  -21.9496  -25.2133 O   0  0  0  0  0  0
  -26.8932  -19.1476  -24.0133 N   0  0  0  0  0  0
  -25.7492  -19.7756  -23.7036 C   0  0  0  0  0  0
  -25.2374  -19.5698  -22.2783 C   0  0  0  0  0  0
  -25.6901  -20.7168  -21.3493 C   0  0  0  0  0  0
  -27.2246  -20.8081  -21.1706 C   0  0  0  0  0  0
  -27.7167  -21.9381  -20.2403 C   0  0  2  0  0  0
  -27.4237  -23.3319  -20.8380 C   0  0  0  0  0  0
  -26.4227  -23.9494  -20.4134 O   0  5  0  0  0  0
  -28.2009  -23.7962  -21.7047 O   0  0  0  0  0  0
  -29.1685  -21.8021  -20.0143 N   0  3  0  0  0  0
  -25.1598  -20.5387  -24.4698 O   0  0  0  0  0  0
  -29.9691  -18.4365  -23.5113 S   0  0  0  0  0  0
  -31.6689  -18.7018  -24.0756 C   0  0  0  0  0  0
  -31.1406  -22.2188  -25.9435 C   0  0  0  0  0  0
  -32.0353  -22.2808  -26.8133 O   0  5  0  0  0  0
  -30.3727  -23.1496  -25.6132 O   0  0  0  0  0  0
  -35.8117  -19.2479  -26.5590 H   0  0  0  0  0  0
  -33.4691  -21.5343  -24.9752 H   0  0  0  0  0  0
  -33.7445  -20.3365  -23.7409 H   0  0  0  0  0  0
  -29.4889  -18.3138  -25.8801 H   0  0  0  0  0  0
  -27.2386  -19.0183  -26.1183 H   0  0  0  0  0  0
  -27.2508  -18.4682  -23.3504 H   0  0  0  0  0  0
  -25.5692  -18.6051  -21.8919 H   0  0  0  0  0  0
  -24.1484  -19.5272  -22.3096 H   0  0  0  0  0  0
  -25.2256  -20.5827  -20.3719 H   0  0  0  0  0  0
  -25.3011  -21.6582  -21.7388 H   0  0  0  0  0  0
  -27.7108  -20.9326  -22.1387 H   0  0  0  0  0  0
  -27.5783  -19.8503  -20.7847 H   0  0  0  0  0  0
  -27.2285  -21.8450  -19.2682 H   0  0  0  0  0  0
  -29.4905  -22.4858  -19.3428 H   0  0  0  0  0  0
  -29.4069  -20.8840  -19.6558 H   0  0  0  0  0  0
  -31.9499  -17.9038  -24.7637 H   0  0  0  0  0  0
  -32.3183  -18.6143  -23.2040 H   0  0  0  0  0  0
  -29.6467  -21.9544  -20.8894 H   0  0  0  0  0  0
  1  2  2  0  0  0
  2  3  1  0  0  0
  2 28  1  0  0  0
  3  4  1  0  0  0
  4  5  1  0  0  0
  4 29  1  0  0  0
  4 30  1  0  0  0
  5 24  1  0  0  0
  5  6  2  0  0  0
  6  7  1  0  0  0
  6 25  1  0  0  0
  7 10  1  0  0  0
  7  8  1  0  0  0
  8  9  1  0  0  0
  8 23  1  0  0  0
  8 31  1  0  0  0
  9 10  1  0  0  0
  9 12  1  0  0  0
  9 32  1  0  0  0
 10 11  2  0  0  0
 12 13  1  0  0  0
 12 33  1  0  0  0
 13 14  1  0  0  0
 13 22  2  0  0  0
 14 15  1  0  0  0
 14 34  1  0  0  0
 14 35  1  0  0  0
 15 16  1  0  0  0
 15 36  1  0  0  0
 15 37  1  0  0  0
 16 17  1  0  0  0
 16 38  1  0  0  0
 16 39  1  0  0  0
 17 18  1  0  0  0
 17 21  1  0  0  0
 17 40  1  0  0  0
 18 19  1  0  0  0
 18 20  2  0  0  0
 21 41  1  0  0  0
 21 42  1  0  0  0
 21 45  1  0  0  0
 23 24  1  0  0  0
 24 43  1  0  0  0
 24 44  1  0  0  0
 25 26  1  0  0  0
 25 27  2  0  0  0
M  CHG  3  19  -1  21   1  26  -1
M  END
> <s_m_entry_id>
27352

> <s_m_entry_name>
data_maestro.25

> <s_m_Source_Path>
C:\Users\olshana1\Git\GramNeg-Accumulation\Gram Negative Permeation - OmpF

> <s_m_Source_File>
data_maestro.csv

> <i_m_Source_File_Index>
25

> <s_m_job_name>
glide-dock_Nicaido_neutral

> <s_i_glide_gridfile>
3POX-grid

> <i_i_glide_lignum>
32

> <i_i_glide_rotatable_bonds>
11

> <r_i_docking_score>
-5.29521869361836

> <r_i_glide_ligand_efficiency>
-0.196119210874754

> <r_i_glide_ligand_efficiency_sa>
-0.588357631977885

> <r_i_glide_ligand_efficiency_ln>
-1.23263961337144

> <r_i_glide_gscore>
-5.29521869361836

> <r_i_glide_lipo>
0

> <r_i_glide_hbond>
-1.1929304797304

> <r_i_glide_metal>
0

> <r_i_glide_rewards>
-0.677038695718077

> <r_i_glide_evdw>
-16.4416828155518

> <r_i_glide_ecoul>
-19.7802715301514

> <r_i_glide_erotb>
0.97830559423054

> <r_i_glide_esite>
-0.614430242100133

> <r_i_glide_emodel>
-68.8580020915408

> <r_i_glide_energy>
-36.2219543457031

> <r_i_glide_einternal>
3.87631273269653

> <i_i_glide_confnum>
334

> <i_i_glide_posenum>
400

> <r_i_glide_eff_state_penalty>
0

> <r_glide_res:A132_vdw>
0.456598388666368

> <r_glide_res:A132_coul>
-45.8770414780794

> <r_glide_res:A132_hbond>
-0.286068791287002

> <r_glide_res:A132_dist>
1.90076172797571

> <r_glide_res:A132_Eint>
-45.7065118807

> <r_glide_res:A117_vdw>
-5.090521664099

> <r_glide_res:A117_coul>
13.1803649506866

> <r_glide_res:A117_hbond>
-0.32

> <r_glide_res:A117_dist>
1.89073463206119

> <r_glide_res:A117_Eint>
7.76984328658759

> <r_glide_res:A113_vdw>
0.774694764528522

> <r_glide_res:A113_coul>
-11.4424539751788

> <r_glide_res:A113_hbond>
-0.225183930498533

> <r_glide_res:A113_dist>
2.04917968633443

> <r_glide_res:A113_Eint>
-10.8929431411488

> <r_glide_res:A82_vdw>
-1.97534617263864

> <r_glide_res:A82_coul>
-49.2290836416177

> <r_glide_res:A82_hbond>
0

> <r_glide_res:A82_dist>
2.63353818048489

> <r_glide_res:A82_Eint>
-51.2044298142564

> <r_glide_res:A42_vdw>
2.72412136153974

> <r_glide_res:A42_coul>
-59.4135980237776

> <r_glide_res:A42_hbond>
-0.353604476124432

> <r_glide_res:A42_dist>
1.70716915765548

> <r_glide_res:A42_Eint>
-57.0430811383623

> <r_glide_res:A16_vdw>
-0.656822766103026

> <r_glide_res:A16_coul>
-44.8374794345827

> <r_glide_res:A16_hbond>
-0.00807328182043088

> <r_glide_res:A16_dist>
2.36123318556611

> <r_glide_res:A16_Eint>
-45.5023754825061

> <s_m_source_file>
ligprep_Nicaido_neutral.maegz

> <i_m_source_file_index>
25

> <i_lp_mmshare_version>
58128

> <i_f3d_flags>
0

> <s_lp_Force_Field>
S-OPLS

> <r_lp_Energy>
27.061927

> <b_lp_Chiralities_Consistent>
1

> <s_lp_Variant>
Cephalosporin C-1

> <s_epik_input>
Tz1bQ0hdT1tDSDJdQyg9QzFDKD1PKVtPSF0pW0NIMl1TW0NASF0oTjEyKVtDQEhdKEMyPU8pW05IXUMoPU8pW0NIMl1bQ0gyXVtDSDJdW0NAQEhdKFtOSDJdKUMoPU8pW09IXQ==

> <s_epik_cmdline>
J2VwaWtfcHl0aG9uJywgJy1waHQnLCAnMC4wJywgJy1waCcsICc3LjQnLCAnLW50JywgJy1tYScsICc1MDAnLCAnLWltYWUnLCAnPGluZmlsZS5tYWU+JywgJy1vbWFlJywgJzxvdXRmaWxlLm1hZT4n

> <r_lp_tautomer_probability>
1

> <r_epik_Ionization_Penalty>
  0.0034

> <r_epik_Ionization_Penalty_Charging>
  0.0034

> <r_epik_Ionization_Penalty_Neutral>
  0.0000

> <r_epik_State_Penalty>
  0.0000

> <r_epik_Charging_Adjusted_Penalty>
0.00339038450865705

> <i_epik_Tot_Q>
-1

> <i_epik_Tot_abs_Q>
3

> <s_epik_Chemistry_Notes>
This compound has an ester and may undergo hydrolysis at high or low pH. This compound contains an acetal/aminal-like group ( X-CH(R)-Y where X, Y are N, S, or O) that may be acid/base labile, releasing an aldehyde.

> <s_m_subgroup_title>
glide-dock_Nicaido_neutral_pv1

> <s_m_subgroupid>
glide-dock_Nicaido_neutral_pv1

> <b_m_subgroup_collapsed>
0

$$$$
Cefoxitin
                    3D
 Schrodinger Suite 2022-2.
 44 46  0  0  1  0            999 V2000
  -28.3673  -22.3633  -17.5029 C   0  0  0  0  0  0
  -27.9690  -21.3748  -18.4504 O   0  0  0  0  0  0
  -27.1094  -21.8453  -19.4853 C   0  0  2  0  0  0
  -26.9991  -20.9226  -20.7202 C   0  0  1  0  0  0
  -27.9794  -21.7860  -21.3637 N   0  0  0  0  0  0
  -27.8759  -22.7982  -20.4327 C   0  0  0  0  0  0
  -28.2443  -23.9495  -20.4099 O   0  0  0  0  0  0
  -28.4271  -21.5330  -22.6710 C   0  0  0  0  0  0
  -28.4400  -22.7499  -23.6893 C   0  0  0  0  0  0
  -28.3693  -22.4864  -24.9124 O   0  5  0  0  0  0
  -28.4567  -23.9105  -23.2133 O   0  0  0  0  0  0
  -28.9239  -20.2935  -22.9259 C   0  0  0  0  0  0
  -29.0177  -19.2480  -21.8146 C   0  0  0  0  0  0
  -27.5662  -19.1867  -20.7135 S   0  0  0  0  0  0
  -29.6907  -19.9063  -24.1877 C   0  0  0  0  0  0
  -28.9748  -19.0163  -25.0378 O   0  0  0  0  0  0
  -29.5338  -18.6736  -26.2137 C   0  0  0  0  0  0
  -28.7689  -17.7187  -26.8424 N   0  0  0  0  0  0
  -30.5729  -19.1494  -26.6728 O   0  0  0  0  0  0
  -25.8065  -22.3001  -18.9667 N   0  0  0  0  0  0
  -24.9815  -23.2744  -19.4000 C   0  0  0  0  0  0
  -23.7444  -23.5851  -18.5489 C   0  0  0  0  0  0
  -23.2769  -22.4364  -17.7106 C   0  0  0  0  0  0
  -22.5181  -21.3603  -18.0985 C   0  0  0  0  0  0
  -22.2314  -20.4623  -17.0288 C   0  0  0  0  0  0
  -22.7703  -20.8699  -15.8381 C   0  0  0  0  0  0
  -23.6711  -22.3497  -16.0134 S   0  0  0  0  0  0
  -25.1737  -23.9494  -20.4132 O   0  0  0  0  0  0
  -29.0968  -21.9495  -16.8134 H   0  0  0  0  0  0
  -28.8553  -23.2221  -17.9608 H   0  0  0  0  0  0
  -27.5188  -22.7239  -16.9200 H   0  0  0  0  0  0
  -26.0367  -21.0033  -21.2306 H   0  0  0  0  0  0
  -29.1685  -18.2547  -22.2372 H   0  0  0  0  0  0
  -29.9003  -19.4666  -21.2118 H   0  0  0  0  0  0
  -29.9923  -20.7890  -24.7476 H   0  0  0  0  0  0
  -30.6216  -19.4279  -23.8802 H   0  0  0  0  0  0
  -27.9018  -17.3634  -26.4134 H   0  0  0  0  0  0
  -29.1300  -17.2968  -27.6844 H   0  0  0  0  0  0
  -25.5106  -21.8200  -18.1281 H   0  0  0  0  0  0
  -22.9370  -23.9051  -19.2083 H   0  0  0  0  0  0
  -23.9790  -24.4384  -17.9118 H   0  0  0  0  0  0
  -22.1605  -21.1867  -19.1032 H   0  0  0  0  0  0
  -21.6495  -19.5623  -17.1673 H   0  0  0  0  0  0
  -22.7218  -20.3836  -14.8733 H   0  0  0  0  0  0
  1  2  1  0  0  0
  1 29  1  0  0  0
  1 30  1  0  0  0
  1 31  1  0  0  0
  2  3  1  0  0  0
  3  6  1  0  0  0
  3  4  1  0  0  0
  3 20  1  0  0  0
  4 14  1  0  0  0
  4  5  1  0  0  0
  4 32  1  0  0  0
  5  6  1  0  0  0
  5  8  1  0  0  0
  6  7  2  0  0  0
  8  9  1  0  0  0
  8 12  2  0  0  0
  9 10  1  0  0  0
  9 11  2  0  0  0
 12 13  1  0  0  0
 12 15  1  0  0  0
 13 14  1  0  0  0
 13 33  1  0  0  0
 13 34  1  0  0  0
 15 16  1  0  0  0
 15 35  1  0  0  0
 15 36  1  0  0  0
 16 17  1  0  0  0
 17 18  1  0  0  0
 17 19  2  0  0  0
 18 37  1  0  0  0
 18 38  1  0  0  0
 20 21  1  0  0  0
 20 39  1  0  0  0
 21 22  1  0  0  0
 21 28  2  0  0  0
 22 23  1  0  0  0
 22 40  1  0  0  0
 22 41  1  0  0  0
 23 27  1  0  0  0
 23 24  2  0  0  0
 24 25  1  0  0  0
 24 42  1  0  0  0
 25 26  2  0  0  0
 25 43  1  0  0  0
 26 27  1  0  0  0
 26 44  1  0  0  0
M  CHG  1  10  -1
M  END
> <s_m_entry_id>
27353

> <s_m_entry_name>
data_maestro.4

> <s_m_Source_Path>
C:\Users\olshana1\Git\GramNeg-Accumulation\Gram Negative Permeation - OmpF

> <s_m_Source_File>
data_maestro.csv

> <i_m_Source_File_Index>
4

> <s_m_job_name>
glide-dock_Nicaido_neutral

> <s_i_glide_gridfile>
3POX-grid

> <i_i_glide_lignum>
4

> <i_i_glide_rotatable_bonds>
9

> <r_i_docking_score>
-5.29268458668347

> <r_i_glide_ligand_efficiency>
-0.189024449524409

> <r_i_glide_ligand_efficiency_sa>
-0.573989558203139

> <r_i_glide_ligand_efficiency_ln>
-1.22170700257856

> <r_i_glide_gscore>
-5.29268458668347

> <r_i_glide_lipo>
0

> <r_i_glide_hbond>
-1.09286893349991

> <r_i_glide_metal>
0

> <r_i_glide_rewards>
-0.500957257768706

> <r_i_glide_evdw>
-28.2726593017578

> <r_i_glide_ecoul>
-14.7563819885254

> <r_i_glide_erotb>
0.545654768997296

> <r_i_glide_esite>
-0.617422901045448

> <r_i_glide_emodel>
-65.4332339445097

> <r_i_glide_energy>
-43.0290412902832

> <r_i_glide_einternal>
12.2573957443237

> <i_i_glide_confnum>
78

> <i_i_glide_posenum>
316

> <r_i_glide_eff_state_penalty>
0

> <r_glide_res:A132_vdw>
-0.407069967750736

> <r_glide_res:A132_coul>
-43.9502080222514

> <r_glide_res:A132_hbond>
-0.32

> <r_glide_res:A132_dist>
1.75088408780256

> <r_glide_res:A132_Eint>
-44.6772779900021

> <r_glide_res:A117_vdw>
-0.972511687898498

> <r_glide_res:A117_coul>
16.1535512287236

> <r_glide_res:A117_hbond>
-0.16

> <r_glide_res:A117_dist>
1.75207053631929

> <r_glide_res:A117_Eint>
15.0210395408251

> <r_glide_res:A113_vdw>
-3.71769336742445

> <r_glide_res:A113_coul>
26.6270487059692

> <r_glide_res:A113_hbond>
0

> <r_glide_res:A113_dist>
2.53036665901332

> <r_glide_res:A113_Eint>
22.9093553385448

> <r_glide_res:A82_vdw>
1.02500057303451

> <r_glide_res:A82_coul>
-51.9448177890833

> <r_glide_res:A82_hbond>
-0.278698479363441

> <r_glide_res:A82_dist>
1.90144608644765

> <r_glide_res:A82_Eint>
-51.1985156954122

> <r_glide_res:A42_vdw>
-0.794297257476625

> <r_glide_res:A42_coul>
-47.6917775380375

> <r_glide_res:A42_hbond>
-0.333644638256585

> <r_glide_res:A42_dist>
2.03164884843725

> <r_glide_res:A42_Eint>
-48.8197194337707

> <r_glide_res:A16_vdw>
-0.632379650554885

> <r_glide_res:A16_coul>
-35.070852526435

> <r_glide_res:A16_hbond>
-0.000525815879883111

> <r_glide_res:A16_dist>
2.49347290873556

> <r_glide_res:A16_Eint>
-35.7037579928698

> <s_m_source_file>
ligprep_Nicaido_neutral.maegz

> <i_m_source_file_index>
4

> <i_lp_mmshare_version>
58128

> <i_f3d_flags>
0

> <s_lp_Force_Field>
S-OPLS

> <r_lp_Energy>
27.517474

> <b_lp_Chiralities_Consistent>
1

> <s_lp_Variant>
Cefoxitin-1

> <s_epik_input>
czFbY0hdW2NIXVtjSF1jMVtDSDJdQyg9TylbTkhdW0NAXTIoT1tDSDNdKUMoPU8pTihbQ0BIXTIzKUMoQyg9TylbT0hdKT1DKFtDSDJdUzMpW0NIMl1PQyg9TylbTkgyXQ==

> <s_epik_cmdline>
J2VwaWtfcHl0aG9uJywgJy1waHQnLCAnMC4wJywgJy1waCcsICc3LjQnLCAnLW50JywgJy1tYScsICc1MDAnLCAnLWltYWUnLCAnPGluZmlsZS5tYWU+JywgJy1vbWFlJywgJzxvdXRmaWxlLm1hZT4n

> <r_lp_tautomer_probability>
1

> <r_epik_Ionization_Penalty>
  0.0000

> <r_epik_Ionization_Penalty_Charging>
  0.0000

> <r_epik_Ionization_Penalty_Neutral>
  0.0000

> <r_epik_State_Penalty>
  0.0000

> <r_epik_Charging_Adjusted_Penalty>
8.89144247208744e-06

> <i_epik_Tot_Q>
-1

> <i_epik_Tot_abs_Q>
1

> <s_epik_Chemistry_Notes>
This compound has an ester and may undergo hydrolysis at high or low pH. This compound contains an acetal/aminal-like group ( X-CH(R)-Y where X, Y are N, S, or O) that may be acid/base labile, releasing an aldehyde.

> <s_m_subgroup_title>
glide-dock_Nicaido_neutral_pv1

> <s_m_subgroupid>
glide-dock_Nicaido_neutral_pv1

> <b_m_subgroup_collapsed>
0

$$$$
Ceftazidime
                    3D
 Schrodinger Suite 2022-2.
 58 61  0  0  1  0            999 V2000
  -20.1450  -23.6938  -16.9321 C   0  0  0  0  0  0
  -20.6446  -24.4265  -18.2041 C   0  0  0  0  0  0
  -19.7016  -24.1456  -19.4055 C   0  0  0  0  0  0
  -20.6773  -25.9495  -17.9080 C   0  0  0  0  0  0
  -21.1693  -26.3150  -16.8136 O   0  5  0  0  0  0
  -20.1896  -26.7495  -18.7449 O   0  0  0  0  0  0
  -21.9850  -24.0031  -18.5025 O   0  0  0  0  0  0
  -22.0191  -22.6242  -18.8122 N   0  0  0  0  0  0
  -23.1595  -22.1595  -19.1568 C   0  0  0  0  0  0
  -24.4842  -22.9380  -19.2281 C   0  0  0  0  0  0
  -25.5775  -22.1589  -19.3376 N   0  0  0  0  0  0
  -26.9081  -22.6503  -19.6685 C   0  0  1  0  0  0
  -27.8789  -21.5318  -20.1039 C   0  0  2  0  0  0
  -27.9665  -22.1959  -21.3933 N   0  0  0  0  0  0
  -28.6997  -21.7105  -22.4911 C   0  0  0  0  0  0
  -28.9608  -22.7963  -23.6166 C   0  0  0  0  0  0
  -29.2506  -23.9495  -23.2128 O   0  5  0  0  0  0
  -28.8106  -22.4506  -24.8143 O   0  0  0  0  0  0
  -29.1681  -20.4296  -22.5024 C   0  0  0  0  0  0
  -30.0813  -19.8478  -23.5746 C   0  0  0  0  0  0
  -31.4401  -19.7032  -23.0209 N   0  3  0  0  0  0
  -31.8531  -18.5005  -22.5459 C   0  0  0  0  0  0
  -33.1539  -18.3503  -22.0251 C   0  0  0  0  0  0
  -34.0234  -19.4569  -22.0134 C   0  0  0  0  0  0
  -33.5650  -20.6943  -22.5014 C   0  0  0  0  0  0
  -32.2517  -20.7897  -23.0034 C   0  0  0  0  0  0
  -28.8540  -19.4101  -21.3986 C   0  0  0  0  0  0
  -27.3944  -19.8133  -20.4125 S   0  0  0  0  0  0
  -27.0065  -23.1444  -21.1303 C   0  0  0  0  0  0
  -26.4443  -23.9501  -21.8401 O   0  0  0  0  0  0
  -24.5525  -24.1711  -19.2323 O   0  0  0  0  0  0
  -23.2390  -20.7199  -19.5444 C   0  0  0  0  0  0
  -22.6834  -19.7290  -18.7632 C   0  0  0  0  0  0
  -22.8974  -18.1385  -19.4551 S   0  0  0  0  0  0
  -23.7134  -18.8892  -20.8208 C   0  0  0  0  0  0
  -24.2131  -18.1491  -21.8771 N   0  0  0  0  0  0
  -23.8109  -20.2151  -20.7250 N   0  0  0  0  0  0
  -19.1960  -24.1025  -16.5841 H   0  0  0  0  0  0
  -19.9874  -22.6297  -17.1122 H   0  0  0  0  0  0
  -20.8636  -23.7789  -16.1171 H   0  0  0  0  0  0
  -18.7135  -24.5802  -19.2446 H   0  0  0  0  0  0
  -20.1079  -24.5654  -20.3258 H   0  0  0  0  0  0
  -19.5521  -23.0785  -19.5699 H   0  0  0  0  0  0
  -25.4591  -21.1552  -19.3683 H   0  0  0  0  0  0
  -27.3432  -23.3103  -18.9167 H   0  0  0  0  0  0
  -28.8347  -21.5750  -19.5749 H   0  0  0  0  0  0
  -29.7277  -18.8675  -23.8951 H   0  0  0  0  0  0
  -30.1635  -20.4504  -24.4744 H   0  0  0  0  0  0
  -31.1379  -17.6884  -22.5811 H   0  0  0  0  0  0
  -33.4694  -17.3963  -21.6316 H   0  0  0  0  0  0
  -35.0231  -19.3631  -21.6091 H   0  0  0  0  0  0
  -34.2089  -21.5609  -22.4790 H   0  0  0  0  0  0
  -31.8346  -21.7104  -23.3856 H   0  0  0  0  0  0
  -28.7173  -18.4162  -21.8225 H   0  0  0  0  0  0
  -29.7120  -19.3396  -20.7321 H   0  0  0  0  0  0
  -22.1750  -19.8355  -17.8142 H   0  0  0  0  0  0
  -24.8448  -18.5625  -22.5511 H   0  0  0  0  0  0
  -24.1722  -17.1405  -21.8752 H   0  0  0  0  0  0
  1  2  1  0  0  0
  1 38  1  0  0  0
  1 39  1  0  0  0
  1 40  1  0  0  0
  2  3  1  0  0  0
  2  4  1  0  0  0
  2  7  1  0  0  0
  3 41  1  0  0  0
  3 42  1  0  0  0
  3 43  1  0  0  0
  4  5  1  0  0  0
  4  6  2  0  0  0
  7  8  1  0  0  0
  8  9  2  3  0  0
  9 10  1  0  0  0
  9 32  1  0  0  0
 10 11  1  0  0  0
 10 31  2  0  0  0
 11 12  1  0  0  0
 11 44  1  0  0  0
 12 29  1  0  0  0
 12 13  1  0  0  0
 12 45  1  0  0  0
 13 28  1  0  0  0
 13 14  1  0  0  0
 13 46  1  0  0  0
 14 15  1  0  0  0
 14 29  1  0  0  0
 15 16  1  0  0  0
 15 19  2  0  0  0
 16 17  1  0  0  0
 16 18  2  0  0  0
 19 20  1  0  0  0
 19 27  1  0  0  0
 20 21  1  0  0  0
 20 47  1  0  0  0
 20 48  1  0  0  0
 21 26  1  0  0  0
 21 22  2  0  0  0
 22 23  1  0  0  0
 22 49  1  0  0  0
 23 24  2  0  0  0
 23 50  1  0  0  0
 24 25  1  0  0  0
 24 51  1  0  0  0
 25 26  2  0  0  0
 25 52  1  0  0  0
 26 53  1  0  0  0
 27 28  1  0  0  0
 27 54  1  0  0  0
 27 55  1  0  0  0
 29 30  2  0  0  0
 32 37  1  0  0  0
 32 33  2  0  0  0
 33 34  1  0  0  0
 33 56  1  0  0  0
 34 35  1  0  0  0
 35 36  1  0  0  0
 35 37  2  0  0  0
 36 57  1  0  0  0
 36 58  1  0  0  0
M  CHG  3   5  -1  17  -1  21   1
M  END
> <s_m_entry_id>
27354

> <s_m_entry_name>
data_maestro.30

> <s_m_Source_Path>
C:\Users\olshana1\Git\GramNeg-Accumulation\Gram Negative Permeation - OmpF

> <s_m_Source_File>
data_maestro.csv

> <i_m_Source_File_Index>
30

> <s_m_job_name>
glide-dock_Nicaido_neutral

> <s_i_glide_gridfile>
3POX-grid

> <i_i_glide_lignum>
39

> <i_i_glide_rotatable_bonds>
10

> <r_i_docking_score>
-5.28653214410257

> <r_i_glide_ligand_efficiency>
-0.142879247137907

> <r_i_glide_ligand_efficiency_sa>
-0.476105348886598

> <r_i_glide_ligand_efficiency_ln>
-1.14652488815853

> <r_i_glide_gscore>
-5.28653214410257

> <r_i_glide_lipo>
-0.0479531410668052

> <r_i_glide_hbond>
-0.897799001282434

> <r_i_glide_metal>
0

> <r_i_glide_rewards>
0.00375693022016851

> <r_i_glide_evdw>
-30.708459854126

> <r_i_glide_ecoul>
-18.8322067260742

> <r_i_glide_erotb>
0.556495996469625

> <r_i_glide_esite>
-0.540778926825691

> <r_i_glide_emodel>
-85.6149498215965

> <r_i_glide_energy>
-49.5406665802002

> <r_i_glide_einternal>
4.15094327926636

> <i_i_glide_confnum>
102

> <i_i_glide_posenum>
319

> <r_i_glide_eff_state_penalty>
0

> <r_glide_res:A132_vdw>
-2.00371936667166

> <r_glide_res:A132_coul>
-40.0489771769972

> <r_glide_res:A132_hbond>
-0.121448855573606

> <r_glide_res:A132_dist>
2.06136930110452

> <r_glide_res:A132_Eint>
-42.1741453992425

> <r_glide_res:A117_vdw>
-3.32834296518884

> <r_glide_res:A117_coul>
9.72368527804693

> <r_glide_res:A117_hbond>
0

> <r_glide_res:A117_dist>
2.33070126375227

> <r_glide_res:A117_Eint>
6.39534231285808

> <r_glide_res:A113_vdw>
-4.63884211060748

> <r_glide_res:A113_coul>
0.17096277019849

> <r_glide_res:A113_hbond>
0

> <r_glide_res:A113_dist>
2.44480605349764

> <r_glide_res:A113_Eint>
-4.46787934040899

> <r_glide_res:A82_vdw>
0.850544675689482

> <r_glide_res:A82_coul>
-46.9171472981521

> <r_glide_res:A82_hbond>
-0.24327123517069

> <r_glide_res:A82_dist>
1.76774803471658

> <r_glide_res:A82_Eint>
-46.3098738576333

> <r_glide_res:A42_vdw>
-1.33235685467381

> <r_glide_res:A42_coul>
-36.6012656430003

> <r_glide_res:A42_hbond>
-0.190932822105682

> <r_glide_res:A42_dist>
2.16865524849679

> <r_glide_res:A42_Eint>
-38.1245553197798

> <r_glide_res:A16_vdw>
-0.350533020147461

> <r_glide_res:A16_coul>
-12.861056018795

> <r_glide_res:A16_hbond>
0

> <r_glide_res:A16_dist>
3.71599868058555

> <r_glide_res:A16_Eint>
-13.2115890389425

> <s_m_source_file>
ligprep_Nicaido_neutral.maegz

> <i_m_source_file_index>
30

> <i_lp_mmshare_version>
58128

> <i_f3d_flags>
0

> <s_lp_Force_Field>
S-OPLS

> <r_lp_Energy>
82.572273

> <b_lp_Chiralities_Consistent>
1

> <s_lp_Variant>
Ceftazidime-2

> <s_epik_input>
W09IXUMoPU8pQyhbQ0gzXSkoW0NIM10pTy9OPUMoYzFbY0hdc2MobjEpW05IMl0pL0MoPU8pW05IXVtDQEBIXTJDKD1PKU4oW0NAQEhdMjMpQyhDKD1PKVtPSF0pPUMoW0NIMl1TMylbQ0gyXVtuK100W2NIXVtjSF1bY0hdW2NIXVtjSF00

> <s_epik_cmdline>
J2VwaWtfcHl0aG9uJywgJy1waHQnLCAnMC4wJywgJy1waCcsICc3LjQnLCAnLW50JywgJy1tYScsICc1MDAnLCAnLWltYWUnLCAnPGluZmlsZS5tYWU+JywgJy1vbWFlJywgJzxvdXRmaWxlLm1hZT4n

> <r_lp_tautomer_probability>
1

> <r_epik_Ionization_Penalty>
  0.0005

> <r_epik_Ionization_Penalty_Charging>
  0.0001

> <r_epik_Ionization_Penalty_Neutral>
  0.0005

> <r_epik_State_Penalty>
  0.0000

> <r_epik_Charging_Adjusted_Penalty>
5.84857251211915e-05

> <i_epik_Tot_Q>
-1

> <i_epik_Tot_abs_Q>
3

> <s_epik_Chemistry_Notes>
This compound has an imine and may undergo hydrolysis. This compound contains an acetal/aminal-like group ( X-CH(R)-Y where X, Y are N, S, or O) that may be acid/base labile, releasing an aldehyde.

> <s_m_subgroup_title>
glide-dock_Nicaido_neutral_pv1

> <s_m_subgroupid>
glide-dock_Nicaido_neutral_pv1

> <b_m_subgroup_collapsed>
0

$$$$
Cyclacillin
                    3D
 Schrodinger Suite 2022-2.
 46 48  0  0  1  0            999 V2000
  -22.1398  -22.7698  -22.6736 C   0  0  0  0  0  0
  -23.2125  -22.1587  -23.5991 C   0  0  0  0  0  0
  -24.4537  -23.0841  -23.9019 C   0  0  2  0  0  0
  -25.5382  -22.5168  -23.1131 N   0  0  0  0  0  0
  -25.6310  -21.1046  -22.7891 C   0  0  2  0  0  0
  -23.8688  -20.6820  -22.7201 S   0  0  0  0  0  0
  -26.5112  -21.5014  -21.5903 C   0  0  2  0  0  0
  -26.5567  -22.8934  -22.2688 C   0  0  0  0  0  0
  -27.1421  -23.9475  -22.1150 O   0  0  0  0  0  0
  -27.7761  -20.7434  -21.4655 N   0  0  0  0  0  0
  -28.7155  -20.4798  -22.4007 C   0  0  0  0  0  0
  -29.8838  -19.4949  -22.0542 C   0  0  0  0  0  0
  -30.1075  -18.4337  -23.1750 C   0  0  0  0  0  0
  -30.7914  -18.9576  -24.4548 C   0  0  0  0  0  0
  -32.0957  -19.6992  -24.1275 C   0  0  0  0  0  0
  -31.8522  -20.8228  -23.1101 C   0  0  0  0  0  0
  -31.2090  -20.2726  -21.8236 C   0  0  0  0  0  0
  -29.5694  -18.7505  -20.8142 N   0  3  0  0  0  0
  -28.6608  -20.9940  -23.5174 O   0  0  0  0  0  0
  -24.2459  -24.6153  -23.7694 C   0  0  0  0  0  0
  -24.3621  -25.3037  -24.8111 O   0  5  0  0  0  0
  -23.9829  -25.1050  -22.6485 O   0  0  0  0  0  0
  -22.5443  -21.7176  -24.9132 C   0  0  0  0  0  0
  -21.6596  -23.6394  -23.1207 H   0  0  0  0  0  0
  -22.5688  -23.0699  -21.7168 H   0  0  0  0  0  0
  -21.3507  -22.0470  -22.4587 H   0  0  0  0  0  0
  -24.7664  -22.9102  -24.9313 H   0  0  0  0  0  0
  -26.1291  -20.5242  -23.5680 H   0  0  0  0  0  0
  -25.9366  -21.4961  -20.6638 H   0  0  0  0  0  0
  -27.9203  -20.3476  -20.5490 H   0  0  0  0  0  0
  -30.7276  -17.6250  -22.7831 H   0  0  0  0  0  0
  -29.1656  -17.9602  -23.4487 H   0  0  0  0  0  0
  -31.0045  -18.1196  -25.1190 H   0  0  0  0  0  0
  -30.1220  -19.6103  -25.0126 H   0  0  0  0  0  0
  -32.8241  -18.9941  -23.7246 H   0  0  0  0  0  0
  -32.5339  -20.1074  -25.0381 H   0  0  0  0  0  0
  -32.7987  -21.3073  -22.8667 H   0  0  0  0  0  0
  -31.2230  -21.5964  -23.5502 H   0  0  0  0  0  0
  -31.0444  -21.0948  -21.1242 H   0  0  0  0  0  0
  -31.9332  -19.6185  -21.3338 H   0  0  0  0  0  0
  -30.1727  -17.9414  -20.7543 H   0  0  0  0  0  0
  -29.7739  -19.3131  -19.9820 H   0  0  0  0  0  0
  -22.1637  -22.5737  -25.4713 H   0  0  0  0  0  0
  -23.2463  -21.1861  -25.5567 H   0  0  0  0  0  0
  -21.7050  -21.0452  -24.7257 H   0  0  0  0  0  0
  -28.6160  -18.4168  -20.8121 H   0  0  0  0  0  0
  1  2  1  0  0  0
  1 24  1  0  0  0
  1 25  1  0  0  0
  1 26  1  0  0  0
  2  6  1  0  0  0
  2  3  1  0  0  0
  2 23  1  0  0  0
  3  4  1  0  0  0
  3 20  1  0  0  0
  3 27  1  0  0  0
  4  8  1  0  0  0
  4  5  1  0  0  0
  5  6  1  0  0  0
  5  7  1  0  0  0
  5 28  1  0  0  0
  7  8  1  0  0  0
  7 10  1  0  0  0
  7 29  1  0  0  0
  8  9  2  0  0  0
 10 11  1  0  0  0
 10 30  1  0  0  0
 11 12  1  0  0  0
 11 19  2  0  0  0
 12 17  1  0  0  0
 12 13  1  0  0  0
 12 18  1  0  0  0
 13 14  1  0  0  0
 13 31  1  0  0  0
 13 32  1  0  0  0
 14 15  1  0  0  0
 14 33  1  0  0  0
 14 34  1  0  0  0
 15 16  1  0  0  0
 15 35  1  0  0  0
 15 36  1  0  0  0
 16 17  1  0  0  0
 16 37  1  0  0  0
 16 38  1  0  0  0
 17 39  1  0  0  0
 17 40  1  0  0  0
 18 41  1  0  0  0
 18 42  1  0  0  0
 18 46  1  0  0  0
 20 21  1  0  0  0
 20 22  2  0  0  0
 23 43  1  0  0  0
 23 44  1  0  0  0
 23 45  1  0  0  0
M  CHG  2  18   1  21  -1
M  END
> <s_m_entry_id>
27355

> <s_m_entry_name>
data_maestro.19

> <s_m_Source_Path>
C:\Users\olshana1\Git\GramNeg-Accumulation\Gram Negative Permeation - OmpF

> <s_m_Source_File>
data_maestro.csv

> <i_m_Source_File_Index>
19

> <s_m_job_name>
glide-dock_Nicaido_neutral

> <s_i_glide_gridfile>
3POX-grid

> <i_i_glide_lignum>
24

> <i_i_glide_rotatable_bonds>
4

> <r_i_docking_score>
-5.28000749803406

> <r_i_glide_ligand_efficiency>
-0.229565543392785

> <r_i_glide_ligand_efficiency_sa>
-0.652853867884083

> <r_i_glide_ligand_efficiency_ln>
-1.27675368948564

> <r_i_glide_gscore>
-5.48330749803406

> <r_i_glide_lipo>
0

> <r_i_glide_hbond>
-0.516918852186684

> <r_i_glide_metal>
0

> <r_i_glide_rewards>
-1.25892964013486

> <r_i_glide_evdw>
-19.3494701385498

> <r_i_glide_ecoul>
-18.6319713592529

> <r_i_glide_erotb>
0.487675558125352

> <r_i_glide_esite>
-0.43286535302243

> <r_i_glide_emodel>
-65.6352688921474

> <r_i_glide_energy>
-37.9814414978027

> <r_i_glide_einternal>
7.27557516098022

> <i_i_glide_confnum>
2

> <i_i_glide_posenum>
208

> <r_i_glide_eff_state_penalty>
0.2033

> <r_glide_res:A132_vdw>
-1.5124426912935

> <r_glide_res:A132_coul>
-22.1529075076159

> <r_glide_res:A132_hbond>
-0.00982930985980523

> <r_glide_res:A132_dist>
2.45312244880195

> <r_glide_res:A132_Eint>
-23.6751795087692

> <r_glide_res:A117_vdw>
-3.47787168322072

> <r_glide_res:A117_coul>
-8.09396318015298

> <r_glide_res:A117_hbond>
0

> <r_glide_res:A117_dist>
2.42189320274484

> <r_glide_res:A117_Eint>
-11.5718348633737

> <r_glide_res:A113_vdw>
-1.16016962461715

> <r_glide_res:A113_coul>
-36.8716508484704

> <r_glide_res:A113_hbond>
-0.2

> <r_glide_res:A113_dist>
1.82053811740857

> <r_glide_res:A113_Eint>
-38.2318204730875

> <r_glide_res:A82_vdw>
-0.867715664112837

> <r_glide_res:A82_coul>
-29.7223092410157

> <r_glide_res:A82_hbond>
-0.307089542326879

> <r_glide_res:A82_dist>
2.01792299339739

> <r_glide_res:A82_Eint>
-30.8971144474554

> <r_glide_res:A42_vdw>
-1.98190370059385

> <r_glide_res:A42_coul>
-15.2979948920569

> <r_glide_res:A42_hbond>
0

> <r_glide_res:A42_dist>
2.38798855455658

> <r_glide_res:A42_Eint>
-17.2798985926507

> <r_glide_res:A16_vdw>
-0.340069556219272

> <r_glide_res:A16_coul>
-0.0383282229718529

> <r_glide_res:A16_hbond>
0

> <r_glide_res:A16_dist>
3.47652690337369

> <r_glide_res:A16_Eint>
-0.378397779191125

> <s_m_source_file>
ligprep_Nicaido_neutral.maegz

> <i_m_source_file_index>
19

> <i_lp_mmshare_version>
58128

> <i_f3d_flags>
0

> <s_lp_Force_Field>
S-OPLS

> <r_lp_Energy>
30.580191

> <b_lp_Chiralities_Consistent>
1

> <s_lp_Variant>
Cyclacillin-1

> <s_epik_input>
W09IXUMoPU8pW0NAQEhdMUMoW0NIM10pKFtDSDNdKVNbQ0BASF0oTjEyKVtDQEhdKEMyPU8pW05IXUMoPU8pQzMoW05IMl0pW0NIMl1bQ0gyXVtDSDJdW0NIMl1bQ0gyXTM=

> <s_epik_cmdline>
J2VwaWtfcHl0aG9uJywgJy1waHQnLCAnMC4wJywgJy1waCcsICc3LjQnLCAnLW50JywgJy1tYScsICc1MDAnLCAnLWltYWUnLCAnPGluZmlsZS5tYWU+JywgJy1vbWFlJywgJzxvdXRmaWxlLm1hZT4n

> <r_epik_Ionization_Penalty>
  0.2033

> <r_epik_Ionization_Penalty_Charging>
  0.2033

> <r_epik_Ionization_Penalty_Neutral>
  0.0000

> <r_epik_State_Penalty>
  0.2033

> <r_epik_Charging_Adjusted_Penalty>
0.406545099244061

> <i_epik_Tot_Q>
0

> <i_epik_Tot_abs_Q>
2

> <s_epik_Chemistry_Notes>
This compound contains an acetal/aminal-like group ( X-CH(R)-Y where X, Y are N, S, or O) that may be acid/base labile, releasing an aldehyde.

> <s_m_subgroup_title>
glide-dock_Nicaido_neutral_pv1

> <s_m_subgroupid>
glide-dock_Nicaido_neutral_pv1

> <b_m_subgroup_collapsed>
0

$$$$
Ceftriaxone
                    3D
 Schrodinger Suite 2022-2.
 52 55  0  0  1  0            999 V2000
  -21.2018  -24.5916  -21.3806 C   0  0  0  0  0  0
  -22.1253  -24.1484  -22.4165 N   0  0  0  0  0  0
  -22.3036  -22.7635  -22.7090 C   0  0  0  0  0  0
  -21.4319  -21.5919  -21.5932 S   0  0  0  0  0  0
  -22.3665  -21.5923  -20.0248 C   0  0  0  0  0  0
  -23.8855  -21.4325  -20.1518 C   0  0  0  0  0  0
  -24.7771  -22.3926  -19.7854 C   0  0  0  0  0  0
  -26.1710  -22.2453  -19.9420 N   0  0  0  0  0  0
  -26.8354  -20.9650  -20.1092 C   0  0  2  0  0  0
  -28.1437  -21.7536  -20.3631 C   0  0  2  0  0  0
  -27.3381  -22.9869  -19.8744 C   0  0  0  0  0  0
  -27.5681  -24.1391  -19.5725 O   0  0  0  0  0  0
  -28.5184  -21.7395  -21.7860 N   0  0  0  0  0  0
  -28.9984  -22.7514  -22.5378 C   0  0  0  0  0  0
  -29.3310  -22.3789  -23.9741 C   0  0  0  0  0  0
  -28.6535  -21.1705  -24.5339 C   0  0  0  0  0  0
  -27.2828  -21.0364  -24.4909 C   0  0  0  0  0  0
  -26.7468  -19.5494  -25.2136 S   0  0  0  0  0  0
  -28.4180  -19.1796  -25.6095 C   0  0  0  0  0  0
  -28.7690  -18.0418  -26.3150 N   0  0  0  0  0  0
  -29.2834  -20.1057  -25.1956 N   0  0  0  0  0  0
  -30.1512  -23.1135  -24.6189 N   0  0  0  0  0  0
  -30.3765  -22.7049  -25.9411 O   0  0  0  0  0  0
  -31.5689  -23.3396  -26.3763 C   0  0  0  0  0  0
  -29.1648  -23.9088  -22.1403 O   0  0  0  0  0  0
  -25.9692  -20.0285  -21.4086 S   0  0  0  0  0  0
  -24.3078  -20.0650  -20.6875 C   0  0  0  0  0  0
  -24.3150  -23.7923  -19.2706 C   0  0  0  0  0  0
  -23.6971  -23.8344  -18.1833 O   0  5  0  0  0  0
  -24.6059  -24.7495  -20.0124 O   0  0  0  0  0  0
  -22.9541  -22.3047  -23.7372 N   0  0  0  0  0  0
  -23.5244  -23.2030  -24.6287 C   0  0  0  0  0  0
  -23.5689  -24.7113  -24.2323 C   0  0  0  0  0  0
  -24.2992  -25.4438  -24.9047 O   0  0  0  0  0  0
  -22.7761  -25.1408  -23.2133 N   0  5  0  0  0  0
  -23.9690  -22.8735  -25.7263 O   0  0  0  0  0  0
  -21.6245  -24.4268  -20.3912 H   0  0  0  0  0  0
  -21.0103  -25.6607  -21.4741 H   0  0  0  0  0  0
  -20.2408  -24.0821  -21.4499 H   0  0  0  0  0  0
  -22.0002  -20.7571  -19.4278 H   0  0  0  0  0  0
  -22.0669  -22.4744  -19.4689 H   0  0  0  0  0  0
  -26.8526  -20.4087  -19.1686 H   0  0  0  0  0  0
  -28.9503  -21.4398  -19.6982 H   0  0  0  0  0  0
  -28.4137  -20.8373  -22.2303 H   0  0  0  0  0  0
  -26.5482  -21.6901  -24.0409 H   0  0  0  0  0  0
  -29.6903  -17.6605  -26.1577 H   0  0  0  0  0  0
  -28.0496  -17.3200  -26.4130 H   0  0  0  0  0  0
  -31.7752  -23.0812  -27.4141 H   0  0  0  0  0  0
  -31.4927  -24.4269  -26.3139 H   0  0  0  0  0  0
  -32.4238  -23.0181  -25.7784 H   0  0  0  0  0  0
  -24.2572  -19.3426  -19.8727 H   0  0  0  0  0  0
  -23.6155  -19.7265  -21.4577 H   0  0  0  0  0  0
  1  2  1  0  0  0
  1 37  1  0  0  0
  1 38  1  0  0  0
  1 39  1  0  0  0
  2 35  1  0  0  0
  2  3  1  0  0  0
  3  4  1  0  0  0
  3 31  2  0  0  0
  4  5  1  0  0  0
  5  6  1  0  0  0
  5 40  1  0  0  0
  5 41  1  0  0  0
  6 27  1  0  0  0
  6  7  2  0  0  0
  7  8  1  0  0  0
  7 28  1  0  0  0
  8 11  1  0  0  0
  8  9  1  0  0  0
  9 10  1  0  0  0
  9 26  1  0  0  0
  9 42  1  0  0  0
 10 11  1  0  0  0
 10 13  1  0  0  0
 10 43  1  0  0  0
 11 12  2  0  0  0
 13 14  1  0  0  0
 13 44  1  0  0  0
 14 15  1  0  0  0
 14 25  2  0  0  0
 15 16  1  0  0  0
 15 22  2  3  0  0
 16 21  1  0  0  0
 16 17  2  0  0  0
 17 18  1  0  0  0
 17 45  1  0  0  0
 18 19  1  0  0  0
 19 20  1  0  0  0
 19 21  2  0  0  0
 20 46  1  0  0  0
 20 47  1  0  0  0
 22 23  1  0  0  0
 23 24  1  0  0  0
 24 48  1  0  0  0
 24 49  1  0  0  0
 24 50  1  0  0  0
 26 27  1  0  0  0
 27 51  1  0  0  0
 27 52  1  0  0  0
 28 29  1  0  0  0
 28 30  2  0  0  0
 31 32  1  0  0  0
 32 33  1  0  0  0
 32 36  2  0  0  0
 33 34  2  0  0  0
 33 35  1  0  0  0
M  CHG  2  29  -1  35  -1
M  END
> <s_m_entry_id>
27356

> <s_m_entry_name>
data_maestro.22

> <s_m_Source_Path>
C:\Users\olshana1\Git\GramNeg-Accumulation\Gram Negative Permeation - OmpF

> <s_m_Source_File>
data_maestro.csv

> <i_m_Source_File_Index>
22

> <s_m_job_name>
glide-dock_Nicaido_neutral

> <s_i_glide_gridfile>
3POX-grid

> <i_i_glide_lignum>
28

> <i_i_glide_rotatable_bonds>
9

> <r_i_docking_score>
-5.27763475560487

> <r_i_glide_ligand_efficiency>
-0.146600965433469

> <r_i_glide_ligand_efficiency_sa>
-0.48406572190081

> <r_i_glide_ligand_efficiency_ln>
-1.15143731845964

> <r_i_glide_gscore>
-5.27763475560487

> <r_i_glide_lipo>
0

> <r_i_glide_hbond>
-0.917831958433734

> <r_i_glide_metal>
0

> <r_i_glide_rewards>
0.0225975648009228

> <r_i_glide_evdw>
-30.0788593292236

> <r_i_glide_ecoul>
-16.8380813598633

> <r_i_glide_erotb>
0.472124986767549

> <r_i_glide_esite>
-0.824870178298936

> <r_i_glide_emodel>
-77.2596615411112

> <r_i_glide_energy>
-46.9169406890869

> <r_i_glide_einternal>
12.3753824234009

> <i_i_glide_confnum>
276

> <i_i_glide_posenum>
298

> <r_i_glide_eff_state_penalty>
0

> <r_glide_res:A132_vdw>
0.468135014275747

> <r_glide_res:A132_coul>
-81.900690783464

> <r_glide_res:A132_hbond>
-0.275941031270552

> <r_glide_res:A132_dist>
1.88901483763709

> <r_glide_res:A132_Eint>
-81.7084968004588

> <r_glide_res:A117_vdw>
-3.65994489617377

> <r_glide_res:A117_coul>
31.2975163830266

> <r_glide_res:A117_hbond>
-0.16

> <r_glide_res:A117_dist>
1.84903294744705

> <r_glide_res:A117_Eint>
27.4775714868528

> <r_glide_res:A113_vdw>
-2.14287747471014

> <r_glide_res:A113_coul>
31.7899615048905

> <r_glide_res:A113_hbond>
0

> <r_glide_res:A113_dist>
2.69678486955625

> <r_glide_res:A113_Eint>
29.6470840301804

> <r_glide_res:A82_vdw>
-3.36785237987625

> <r_glide_res:A82_coul>
-66.6940936947663

> <r_glide_res:A82_hbond>
-0.225054597589815

> <r_glide_res:A82_dist>
2.0498119049822

> <r_glide_res:A82_Eint>
-70.2870006722324

> <r_glide_res:A42_vdw>
-1.72631098376259

> <r_glide_res:A42_coul>
-55.6861850820682

> <r_glide_res:A42_hbond>
-0.0568363295733667

> <r_glide_res:A42_dist>
1.81669814857793

> <r_glide_res:A42_Eint>
-57.4693323954041

> <r_glide_res:A16_vdw>
-1.65919934339292

> <r_glide_res:A16_coul>
-37.5442206198929

> <r_glide_res:A16_hbond>
0

> <r_glide_res:A16_dist>
2.4408627805251

> <r_glide_res:A16_Eint>
-39.2034199632858

> <s_m_source_file>
ligprep_Nicaido_neutral.maegz

> <i_m_source_file_index>
22

> <i_lp_mmshare_version>
58128

> <i_f3d_flags>
0

> <s_lp_Force_Field>
S-OPLS

> <r_lp_Energy>
109.903222

> <b_lp_Chiralities_Consistent>
1

> <s_lp_Variant>
Ceftriaxone-1

> <s_epik_input>
W09IXWMobjEpYyg9TyluYyhuMVtDSDNdKVNbQ0gyXUMoPUMyQyg9TylbT0hdKVtDSDJdU1tDQEhdKE4yMylbQ0BIXShDMz1PKVtOSF1DKD1PKS9DKD1OL09bQ0gzXSljNFtjSF1zYyhuNClbTkgyXQ==

> <s_epik_cmdline>
J2VwaWtfcHl0aG9uJywgJy1waHQnLCAnMC4wJywgJy1waCcsICc3LjQnLCAnLW50JywgJy1tYScsICc1MDAnLCAnLWltYWUnLCAnPGluZmlsZS5tYWU+JywgJy1vbWFlJywgJzxvdXRmaWxlLm1hZT4n

> <r_lp_tautomer_probability>
1

> <r_epik_Ionization_Penalty>
  0.0014

> <r_epik_Ionization_Penalty_Charging>
  0.0010

> <r_epik_Ionization_Penalty_Neutral>
  0.0004

> <r_epik_State_Penalty>
  0.0000

> <r_epik_Charging_Adjusted_Penalty>
0.000994184415634904

> <i_epik_Tot_Q>
-2

> <i_epik_Tot_abs_Q>
2

> <s_epik_Chemistry_Notes>
This compound has an imine and may undergo hydrolysis. This compound contains an acetal/aminal-like group ( X-CH(R)-Y where X, Y are N, S, or O) that may be acid/base labile, releasing an aldehyde.

> <s_m_subgroup_title>
glide-dock_Nicaido_neutral_pv1

> <s_m_subgroupid>
glide-dock_Nicaido_neutral_pv1

> <b_m_subgroup_collapsed>
0

$$$$
Cefuroxime
                    3D
 Schrodinger Suite 2022-2.
 44 46  0  0  1  0            999 V2000
  -37.1762  -19.1205  -28.4687 C   0  0  0  0  0  0
  -36.3059  -18.2281  -27.7960 O   0  0  0  0  0  0
  -35.1843  -18.9620  -27.3744 N   0  0  0  0  0  0
  -34.3366  -18.2465  -26.7498 C   0  0  0  0  0  0
  -34.5083  -16.8270  -26.4666 C   0  0  0  0  0  0
  -35.1301  -16.1052  -25.4852 C   0  0  0  0  0  0
  -34.7689  -14.7496  -25.7072 C   0  0  0  0  0  0
  -33.9689  -14.7496  -26.8134 C   0  0  0  0  0  0
  -33.8053  -16.0043  -27.2937 O   0  0  0  0  0  0
  -33.0303  -18.8300  -26.2361 C   0  0  0  0  0  0
  -32.2225  -17.9254  -25.6344 N   0  0  0  0  0  0
  -30.8869  -18.0849  -25.0504 C   0  0  1  0  0  0
  -30.8639  -18.9804  -23.7994 C   0  0  1  0  0  0
  -29.7911  -19.7099  -24.4446 N   0  0  0  0  0  0
  -29.9852  -19.1547  -25.6974 C   0  0  0  0  0  0
  -29.6244  -19.4633  -26.8134 O   0  0  0  0  0  0
  -29.1816  -20.8123  -23.8337 C   0  0  0  0  0  0
  -28.7106  -21.9309  -24.8134 C   0  0  0  0  0  0
  -27.5381  -22.3495  -24.7071 O   0  5  0  0  0  0
  -29.5689  -22.3580  -25.6156 O   0  0  0  0  0  0
  -29.0885  -20.9357  -22.4850 C   0  0  0  0  0  0
  -29.6491  -19.9072  -21.4948 C   0  0  0  0  0  0
  -30.2427  -18.3498  -22.2169 S   0  0  0  0  0  0
  -28.4213  -22.1446  -21.8336 C   0  0  0  0  0  0
  -28.8879  -22.3899  -20.5198 O   0  0  0  0  0  0
  -28.2197  -23.2227  -19.7242 C   0  0  0  0  0  0
  -28.7689  -23.1500  -18.4713 N   0  0  0  0  0  0
  -27.2834  -23.9496  -20.0659 O   0  0  0  0  0  0
  -32.7580  -20.0224  -26.3898 O   0  0  0  0  0  0
  -38.0545  -18.5795  -28.8208 H   0  0  0  0  0  0
  -36.6918  -19.5742  -29.3353 H   0  0  0  0  0  0
  -37.5177  -19.9158  -27.8040 H   0  0  0  0  0  0
  -35.7353  -16.5071  -24.6855 H   0  0  0  0  0  0
  -35.0539  -13.8805  -25.1317 H   0  0  0  0  0  0
  -33.4524  -13.9758  -27.3618 H   0  0  0  0  0  0
  -32.5723  -16.9778  -25.5970 H   0  0  0  0  0  0
  -30.3819  -17.1356  -24.8763 H   0  0  0  0  0  0
  -31.7476  -19.6089  -23.6682 H   0  0  0  0  0  0
  -30.4877  -20.3653  -20.9701 H   0  0  0  0  0  0
  -28.8986  -19.6651  -20.7414 H   0  0  0  0  0  0
  -28.5746  -23.0446  -22.4284 H   0  0  0  0  0  0
  -27.3482  -21.9491  -21.8034 H   0  0  0  0  0  0
  -29.6459  -22.6108  -18.3715 H   0  0  0  0  0  0
  -28.3482  -23.6699  -17.7169 H   0  0  0  0  0  0
  1  2  1  0  0  0
  1 30  1  0  0  0
  1 31  1  0  0  0
  1 32  1  0  0  0
  2  3  1  0  0  0
  3  4  2  3  0  0
  4  5  1  0  0  0
  4 10  1  0  0  0
  5  9  1  0  0  0
  5  6  2  0  0  0
  6  7  1  0  0  0
  6 33  1  0  0  0
  7  8  2  0  0  0
  7 34  1  0  0  0
  8  9  1  0  0  0
  8 35  1  0  0  0
 10 11  1  0  0  0
 10 29  2  0  0  0
 11 12  1  0  0  0
 11 36  1  0  0  0
 12 15  1  0  0  0
 12 13  1  0  0  0
 12 37  1  0  0  0
 13 23  1  0  0  0
 13 14  1  0  0  0
 13 38  1  0  0  0
 14 15  1  0  0  0
 14 17  1  0  0  0
 15 16  2  0  0  0
 17 18  1  0  0  0
 17 21  2  0  0  0
 18 19  1  0  0  0
 18 20  2  0  0  0
 21 22  1  0  0  0
 21 24  1  0  0  0
 22 23  1  0  0  0
 22 39  1  0  0  0
 22 40  1  0  0  0
 24 25  1  0  0  0
 24 41  1  0  0  0
 24 42  1  0  0  0
 25 26  1  0  0  0
 26 27  1  0  0  0
 26 28  2  0  0  0
 27 43  1  0  0  0
 27 44  1  0  0  0
M  CHG  1  19  -1
M  END
> <s_m_entry_id>
27357

> <s_m_entry_name>
data_maestro.10

> <s_m_Source_Path>
C:\Users\olshana1\Git\GramNeg-Accumulation\Gram Negative Permeation - OmpF

> <s_m_Source_File>
data_maestro.csv

> <i_m_Source_File_Index>
10

> <s_m_job_name>
glide-dock_Nicaido_neutral

> <s_i_glide_gridfile>
3POX-grid

> <i_i_glide_lignum>
13

> <i_i_glide_rotatable_bonds>
9

> <r_i_docking_score>
-5.2769717463369

> <r_i_glide_ligand_efficiency>
-0.181964542977134

> <r_i_glide_ligand_efficiency_sa>
-0.559052726439387

> <r_i_glide_ligand_efficiency_ln>
-1.20829271745332

> <r_i_glide_gscore>
-5.2769717463369

> <r_i_glide_lipo>
-0.293868541061811

> <r_i_glide_hbond>
-0.809963016803573

> <r_i_glide_metal>
0

> <r_i_glide_rewards>
-0.52042087198105

> <r_i_glide_evdw>
-28.2872562408447

> <r_i_glide_ecoul>
-16.048942565918

> <r_i_glide_erotb>
0.663396273735242

> <r_i_glide_esite>
-0.494411393295775

> <r_i_glide_emodel>
-69.2789185929488

> <r_i_glide_energy>
-44.3361988067627

> <r_i_glide_einternal>
7.97640419006348

> <i_i_glide_confnum>
37

> <i_i_glide_posenum>
256

> <r_i_glide_eff_state_penalty>
0

> <r_glide_res:A132_vdw>
-0.971492939114435

> <r_glide_res:A132_coul>
-30.4622583195729

> <r_glide_res:A132_hbond>
-0.202069405204612

> <r_glide_res:A132_dist>
2.03519784665984

> <r_glide_res:A132_Eint>
-31.635820663892

> <r_glide_res:A117_vdw>
-3.90726891862449

> <r_glide_res:A117_coul>
27.1336691305874

> <r_glide_res:A117_hbond>
0

> <r_glide_res:A117_dist>
2.40792668014921

> <r_glide_res:A117_Eint>
23.2264002119629

> <r_glide_res:A113_vdw>
-1.37378276734778

> <r_glide_res:A113_coul>
11.6145103629546

> <r_glide_res:A113_hbond>
-0.16

> <r_glide_res:A113_dist>
1.72830645204549

> <r_glide_res:A113_Eint>
10.0807275956068

> <r_glide_res:A82_vdw>
-1.41752890164219

> <r_glide_res:A82_coul>
-35.4346506174335

> <r_glide_res:A82_hbond>
0

> <r_glide_res:A82_dist>
2.8830694808961

> <r_glide_res:A82_Eint>
-36.8521795190757

> <r_glide_res:A42_vdw>
2.36137020420425

> <r_glide_res:A42_coul>
-58.0385632599448

> <r_glide_res:A42_hbond>
-0.4

> <r_glide_res:A42_dist>
1.73190875100668

> <r_glide_res:A42_Eint>
-56.0771930557406

> <r_glide_res:A16_vdw>
-1.51291469565834

> <r_glide_res:A16_coul>
-48.9906319437587

> <r_glide_res:A16_hbond>
-0.0478936115989614

> <r_glide_res:A16_dist>
2.24365327733516

> <r_glide_res:A16_Eint>
-50.551440251016

> <s_m_source_file>
ligprep_Nicaido_neutral.maegz

> <i_m_source_file_index>
10

> <i_lp_mmshare_version>
58128

> <i_f3d_flags>
0

> <s_lp_Force_Field>
S-OPLS

> <r_lp_Energy>
41.721283

> <b_lp_Chiralities_Consistent>
1

> <s_lp_Variant>
Cefuroxime-1

> <s_epik_input>
bzFbY0hdW2NIXVtjSF1jMS9DKD1OXE9bQ0gzXSlDKD1PKVtOSF1bQ0BASF0yQyg9TylOKFtDQEhdMjMpQyhDKD1PKVtPSF0pPUMoW0NIMl1TMylbQ0gyXU9DKD1PKVtOSDJd

> <s_epik_cmdline>
J2VwaWtfcHl0aG9uJywgJy1waHQnLCAnMC4wJywgJy1waCcsICc3LjQnLCAnLW50JywgJy1tYScsICc1MDAnLCAnLWltYWUnLCAnPGluZmlsZS5tYWU+JywgJy1vbWFlJywgJzxvdXRmaWxlLm1hZT4n

> <r_lp_tautomer_probability>
1

> <r_epik_Ionization_Penalty>
  0.0000

> <r_epik_Ionization_Penalty_Charging>
  0.0000

> <r_epik_Ionization_Penalty_Neutral>
  0.0000

> <r_epik_State_Penalty>
  0.0000

> <r_epik_Charging_Adjusted_Penalty>
8.57368987839538e-06

> <i_epik_Tot_Q>
-1

> <i_epik_Tot_abs_Q>
1

> <s_epik_Chemistry_Notes>
This compound has an ester and may undergo hydrolysis at high or low pH. This compound has an imine and may undergo hydrolysis. This compound contains an acetal/aminal-like group ( X-CH(R)-Y where X, Y are N, S, or O) that may be acid/base labile, releasing an aldehyde.

> <s_m_subgroup_title>
glide-dock_Nicaido_neutral_pv1

> <s_m_subgroupid>
glide-dock_Nicaido_neutral_pv1

> <b_m_subgroup_collapsed>
0

$$$$
Cefuroxime
                    3D
 Schrodinger Suite 2022-2.
 44 46  0  0  1  0            999 V2000
  -35.2851  -27.6459  -26.7762 C   0  0  0  0  0  0
  -35.0988  -26.5931  -27.7044 O   0  0  0  0  0  0
  -34.5423  -25.5034  -27.0172 N   0  0  0  0  0  0
  -34.1721  -24.5615  -27.7959 C   0  0  0  0  0  0
  -34.3471  -24.5846  -29.2531 C   0  0  0  0  0  0
  -35.4190  -24.7678  -30.0870 C   0  0  0  0  0  0
  -34.9176  -24.7475  -31.4174 C   0  0  0  0  0  0
  -33.5707  -24.5638  -31.3035 C   0  0  0  0  0  0
  -33.2041  -24.4616  -29.9950 O   0  0  0  0  0  0
  -33.5180  -23.2952  -27.2604 C   0  0  0  0  0  0
  -33.3335  -23.3132  -25.9246 N   0  0  0  0  0  0
  -32.6052  -22.2988  -25.1562 C   0  0  1  0  0  0
  -32.1828  -22.7949  -23.7560 C   0  0  1  0  0  0
  -30.8517  -22.3083  -24.0842 N   0  0  0  0  0  0
  -31.0888  -22.3017  -25.4419 C   0  0  0  0  0  0
  -30.3689  -22.3494  -26.4133 O   0  0  0  0  0  0
  -29.8124  -22.4583  -23.1533 C   0  0  0  0  0  0
  -28.4542  -23.0848  -23.6204 C   0  0  0  0  0  0
  -28.0137  -22.7496  -24.7441 O   0  5  0  0  0  0
  -27.9669  -23.9496  -22.8521 O   0  0  0  0  0  0
  -29.9896  -21.9771  -21.9030 C   0  0  0  0  0  0
  -31.2907  -21.2961  -21.4925 C   0  0  0  0  0  0
  -32.8013  -22.0199  -22.2168 S   0  0  0  0  0  0
  -28.8779  -21.8942  -20.8607 C   0  0  0  0  0  0
  -29.1689  -22.7234  -19.7552 O   0  0  0  0  0  0
  -28.2851  -23.5498  -19.2121 C   0  0  0  0  0  0
  -28.7689  -23.8970  -17.9757 N   0  0  0  0  0  0
  -27.2383  -23.9495  -19.7232 O   0  0  0  0  0  0
  -33.1689  -22.3583  -27.9848 O   0  0  0  0  0  0
  -35.6990  -28.5134  -27.2892 H   0  0  0  0  0  0
  -34.3407  -27.9500  -26.3239 H   0  0  0  0  0  0
  -35.9778  -27.3589  -25.9836 H   0  0  0  0  0  0
  -36.4419  -24.9110  -29.7718 H   0  0  0  0  0  0
  -35.4691  -24.8617  -32.3405 H   0  0  0  0  0  0
  -32.7691  -24.4854  -32.0212 H   0  0  0  0  0  0
  -33.6787  -24.1189  -25.4216 H   0  0  0  0  0  0
  -33.0773  -21.3149  -25.1421 H   0  0  0  0  0  0
  -32.1814  -23.8841  -23.6600 H   0  0  0  0  0  0
  -31.4067  -21.3560  -20.4135 H   0  0  0  0  0  0
  -31.2309  -20.2375  -21.7465 H   0  0  0  0  0  0
  -27.8956  -22.1084  -21.2776 H   0  0  0  0  0  0
  -28.8246  -20.8646  -20.5058 H   0  0  0  0  0  0
  -29.6261  -23.4271  -17.6928 H   0  0  0  0  0  0
  -28.1856  -24.4388  -17.3539 H   0  0  0  0  0  0
  1  2  1  0  0  0
  1 30  1  0  0  0
  1 31  1  0  0  0
  1 32  1  0  0  0
  2  3  1  0  0  0
  3  4  2  3  0  0
  4  5  1  0  0  0
  4 10  1  0  0  0
  5  9  1  0  0  0
  5  6  2  0  0  0
  6  7  1  0  0  0
  6 33  1  0  0  0
  7  8  2  0  0  0
  7 34  1  0  0  0
  8  9  1  0  0  0
  8 35  1  0  0  0
 10 11  1  0  0  0
 10 29  2  0  0  0
 11 12  1  0  0  0
 11 36  1  0  0  0
 12 15  1  0  0  0
 12 13  1  0  0  0
 12 37  1  0  0  0
 13 23  1  0  0  0
 13 14  1  0  0  0
 13 38  1  0  0  0
 14 15  1  0  0  0
 14 17  1  0  0  0
 15 16  2  0  0  0
 17 18  1  0  0  0
 17 21  2  0  0  0
 18 19  1  0  0  0
 18 20  2  0  0  0
 21 22  1  0  0  0
 21 24  1  0  0  0
 22 23  1  0  0  0
 22 39  1  0  0  0
 22 40  1  0  0  0
 24 25  1  0  0  0
 24 41  1  0  0  0
 24 42  1  0  0  0
 25 26  1  0  0  0
 26 27  1  0  0  0
 26 28  2  0  0  0
 27 43  1  0  0  0
 27 44  1  0  0  0
M  CHG  1  19  -1
M  END
> <s_m_entry_id>
27358

> <s_m_entry_name>
data_maestro.10

> <s_m_Source_Path>
C:\Users\olshana1\Git\GramNeg-Accumulation\Gram Negative Permeation - OmpF

> <s_m_Source_File>
data_maestro.csv

> <i_m_Source_File_Index>
10

> <s_m_job_name>
glide-dock_Nicaido_neutral

> <s_i_glide_gridfile>
3POX-grid

> <i_i_glide_lignum>
13

> <i_i_glide_rotatable_bonds>
9

> <r_i_docking_score>
-5.27040601448925

> <r_i_glide_ligand_efficiency>
-0.181738138430664

> <r_i_glide_ligand_efficiency_sa>
-0.558357139942634

> <r_i_glide_ligand_efficiency_ln>
-1.2067893313528

> <r_i_glide_gscore>
-5.27040601448925

> <r_i_glide_lipo>
-0.395557919646049

> <r_i_glide_hbond>
-1.11349066199816

> <r_i_glide_metal>
0

> <r_i_glide_rewards>
-0.49231366762019

> <r_i_glide_evdw>
-23.6140193939209

> <r_i_glide_ecoul>
-15.095287322998

> <r_i_glide_erotb>
0.663396273735242

> <r_i_glide_esite>
-0.48744597081434

> <r_i_glide_emodel>
-66.0618701295676

> <r_i_glide_energy>
-38.7093067169189

> <r_i_glide_einternal>
2.92409706115723

> <i_i_glide_confnum>
83

> <i_i_glide_posenum>
177

> <r_i_glide_eff_state_penalty>
0

> <r_glide_res:A132_vdw>
-2.0426328068642

> <r_glide_res:A132_coul>
-38.4236345702421

> <r_glide_res:A132_hbond>
-0.140895434602811

> <r_glide_res:A132_dist>
2.15489716734134

> <r_glide_res:A132_Eint>
-40.6071628117091

> <r_glide_res:A117_vdw>
-0.454959982088421

> <r_glide_res:A117_coul>
24.6462643320563

> <r_glide_res:A117_hbond>
0

> <r_glide_res:A117_dist>
4.85680217498044

> <r_glide_res:A117_Eint>
24.1913043499679

> <r_glide_res:A113_vdw>
-1.94425421235111

> <r_glide_res:A113_coul>
17.5215087015337

> <r_glide_res:A113_hbond>
-0.115608964419272

> <r_glide_res:A113_dist>
2.20700476316113

> <r_glide_res:A113_Eint>
15.4616455247633

> <r_glide_res:A82_vdw>
0.617328217922945

> <r_glide_res:A82_coul>
-48.3670013095057

> <r_glide_res:A82_hbond>
-0.231665169732703

> <r_glide_res:A82_dist>
1.71863879193106

> <r_glide_res:A82_Eint>
-47.9813382613155

> <r_glide_res:A42_vdw>
0.51631532239535

> <r_glide_res:A42_coul>
-52.5267765382679

> <r_glide_res:A42_hbond>
-0.369193631373572

> <r_glide_res:A42_dist>
1.84694601049921

> <r_glide_res:A42_Eint>
-52.3796548472461

> <r_glide_res:A16_vdw>
-3.46245584631532

> <r_glide_res:A16_coul>
-42.0561104788151

> <r_glide_res:A16_hbond>
-0.2561274618698

> <r_glide_res:A16_dist>
2.06504343705831

> <r_glide_res:A16_Eint>
-45.7746937870002

> <s_m_source_file>
ligprep_Nicaido_neutral.maegz

> <i_m_source_file_index>
10

> <i_lp_mmshare_version>
58128

> <i_f3d_flags>
0

> <s_lp_Force_Field>
S-OPLS

> <r_lp_Energy>
41.721283

> <b_lp_Chiralities_Consistent>
1

> <s_lp_Variant>
Cefuroxime-1

> <s_epik_input>
bzFbY0hdW2NIXVtjSF1jMS9DKD1OXE9bQ0gzXSlDKD1PKVtOSF1bQ0BASF0yQyg9TylOKFtDQEhdMjMpQyhDKD1PKVtPSF0pPUMoW0NIMl1TMylbQ0gyXU9DKD1PKVtOSDJd

> <s_epik_cmdline>
J2VwaWtfcHl0aG9uJywgJy1waHQnLCAnMC4wJywgJy1waCcsICc3LjQnLCAnLW50JywgJy1tYScsICc1MDAnLCAnLWltYWUnLCAnPGluZmlsZS5tYWU+JywgJy1vbWFlJywgJzxvdXRmaWxlLm1hZT4n

> <r_lp_tautomer_probability>
1

> <r_epik_Ionization_Penalty>
  0.0000

> <r_epik_Ionization_Penalty_Charging>
  0.0000

> <r_epik_Ionization_Penalty_Neutral>
  0.0000

> <r_epik_State_Penalty>
  0.0000

> <r_epik_Charging_Adjusted_Penalty>
8.57368987839538e-06

> <i_epik_Tot_Q>
-1

> <i_epik_Tot_abs_Q>
1

> <s_epik_Chemistry_Notes>
This compound has an ester and may undergo hydrolysis at high or low pH. This compound has an imine and may undergo hydrolysis. This compound contains an acetal/aminal-like group ( X-CH(R)-Y where X, Y are N, S, or O) that may be acid/base labile, releasing an aldehyde.

> <s_m_subgroup_title>
glide-dock_Nicaido_neutral_pv1

> <s_m_subgroupid>
glide-dock_Nicaido_neutral_pv1

> <b_m_subgroup_collapsed>
0

$$$$
Imipenem
                    3D
 Schrodinger Suite 2022-2.
 37 38  0  0  1  0            999 V2000
  -21.9727  -18.9693  -25.4506 C   0  0  0  0  0  0
  -22.4997  -20.3742  -25.7535 C   0  0  2  0  0  0
  -23.0474  -21.0769  -24.5027 C   0  0  1  0  0  0
  -24.2301  -20.4694  -23.7123 C   0  0  2  0  0  0
  -24.3721  -20.4689  -22.1757 C   0  0  0  0  0  0
  -25.5369  -21.4020  -21.9465 C   0  0  0  0  0  0
  -26.3353  -21.5828  -20.3682 S   0  0  0  0  0  0
  -26.4623  -19.9005  -19.7060 C   0  0  0  0  0  0
  -27.2855  -18.9829  -20.6191 C   0  0  0  0  0  0
  -28.7318  -19.1111  -20.4141 N   0  3  0  0  0  0
  -29.5978  -18.3495  -21.1022 C   0  0  0  0  0  0
  -30.9043  -18.3496  -20.8134 N   0  0  0  0  0  0
  -25.8440  -22.0601  -23.0661 C   0  0  0  0  0  0
  -25.0099  -21.6385  -24.0953 N   0  0  0  0  0  0
  -24.0143  -22.2366  -24.8454 C   0  0  0  0  0  0
  -23.9689  -23.2802  -25.4631 O   0  0  0  0  0  0
  -26.9816  -23.0920  -23.3074 C   0  0  0  0  0  0
  -27.1689  -23.9496  -22.4134 O   0  5  0  0  0  0
  -27.5689  -23.0254  -24.4134 O   0  0  0  0  0  0
  -21.4359  -21.1268  -26.3085 O   0  0  0  0  0  0
  -22.7689  -18.3496  -25.0427 H   0  0  0  0  0  0
  -21.6042  -18.4789  -26.3522 H   0  0  0  0  0  0
  -21.1619  -18.9910  -24.7221 H   0  0  0  0  0  0
  -23.2773  -20.2854  -26.5149 H   0  0  0  0  0  0
  -22.2542  -21.3674  -23.8128 H   0  0  0  0  0  0
  -24.6610  -19.5876  -24.1925 H   0  0  0  0  0  0
  -23.4830  -20.8607  -21.6813 H   0  0  0  0  0  0
  -24.5681  -19.4674  -21.7942 H   0  0  0  0  0  0
  -26.9109  -19.9522  -18.7136 H   0  0  0  0  0  0
  -25.4605  -19.4944  -19.5673 H   0  0  0  0  0  0
  -27.0239  -17.9496  -20.4027 H   0  0  0  0  0  0
  -27.0499  -19.1493  -21.6702 H   0  0  0  0  0  0
  -29.2345  -17.7170  -21.9031 H   0  0  0  0  0  0
  -31.1689  -18.8903  -19.9686 H   0  0  0  0  0  0
  -31.5505  -17.7236  -21.2746 H   0  0  0  0  0  0
  -21.7863  -21.8905  -26.7440 H   0  0  0  0  0  0
  -29.0736  -19.6349  -19.6134 H   0  0  0  0  0  0
  1  2  1  0  0  0
  1 21  1  0  0  0
  1 22  1  0  0  0
  1 23  1  0  0  0
  2  3  1  0  0  0
  2 20  1  0  0  0
  2 24  1  0  0  0
  3 15  1  0  0  0
  3  4  1  0  0  0
  3 25  1  0  0  0
  4 14  1  0  0  0
  4  5  1  0  0  0
  4 26  1  0  0  0
  5  6  1  0  0  0
  5 27  1  0  0  0
  5 28  1  0  0  0
  6  7  1  0  0  0
  6 13  2  0  0  0
  7  8  1  0  0  0
  8  9  1  0  0  0
  8 29  1  0  0  0
  8 30  1  0  0  0
  9 10  1  0  0  0
  9 31  1  0  0  0
  9 32  1  0  0  0
 10 11  2  3  0  0
 10 37  1  0  0  0
 11 12  1  0  0  0
 11 33  1  0  0  0
 12 34  1  0  0  0
 12 35  1  0  0  0
 13 14  1  0  0  0
 13 17  1  0  0  0
 14 15  1  0  0  0
 15 16  2  0  0  0
 17 18  1  0  0  0
 17 19  2  0  0  0
 20 36  1  0  0  0
M  CHG  2  10   1  18  -1
M  END
> <s_m_entry_id>
27359

> <s_m_entry_name>
data_maestro.12

> <s_m_Source_Path>
C:\Users\olshana1\Git\GramNeg-Accumulation\Gram Negative Permeation - OmpF

> <s_m_Source_File>
data_maestro.csv

> <i_m_Source_File_Index>
12

> <s_m_job_name>
glide-dock_Nicaido_neutral

> <s_i_glide_gridfile>
3POX-grid

> <i_i_glide_lignum>
16

> <i_i_glide_rotatable_bonds>
7

> <r_i_docking_score>
-5.27017464102075

> <r_i_glide_ligand_efficiency>
-0.263508732051038

> <r_i_glide_ligand_efficiency_sa>
-0.715272743691669

> <r_i_glide_ligand_efficiency_ln>
-1.31895089065445

> <r_i_glide_gscore>
-5.27017464102075

> <r_i_glide_lipo>
0

> <r_i_glide_hbond>
-0.762287341470832

> <r_i_glide_metal>
0

> <r_i_glide_rewards>
-1.36808809090909

> <r_i_glide_evdw>
-14.4581365585327

> <r_i_glide_ecoul>
-19.7117862701416

> <r_i_glide_erotb>
1.02473259195513

> <r_i_glide_esite>
-0.484857032148084

> <r_i_glide_emodel>
-64.3380373000415

> <r_i_glide_energy>
-34.1699228286743

> <r_i_glide_einternal>
3.65411639213562

> <i_i_glide_confnum>
127

> <i_i_glide_posenum>
193

> <r_i_glide_eff_state_penalty>
0

> <r_glide_res:A132_vdw>
-1.26252424411172

> <r_glide_res:A132_coul>
-19.7326015861823

> <r_glide_res:A132_hbond>
0

> <r_glide_res:A132_dist>
2.62354906906663

> <r_glide_res:A132_Eint>
-20.995125830294

> <r_glide_res:A117_vdw>
-2.54453189164578

> <r_glide_res:A117_coul>
-7.91597317116902

> <r_glide_res:A117_hbond>
0

> <r_glide_res:A117_dist>
2.29100076762592

> <r_glide_res:A117_Eint>
-10.4605050628148

> <r_glide_res:A113_vdw>
2.08954565588145

> <r_glide_res:A113_coul>
-29.7267376290716

> <r_glide_res:A113_hbond>
-0.344688288373613

> <r_glide_res:A113_dist>
1.66627438846244

> <r_glide_res:A113_Eint>
-27.9818802615638

> <r_glide_res:A82_vdw>
0.949781025414631

> <r_glide_res:A82_coul>
-30.7356993251927

> <r_glide_res:A82_hbond>
-0.22026494405983

> <r_glide_res:A82_dist>
1.80005118833887

> <r_glide_res:A82_Eint>
-30.0061832438379

> <r_glide_res:A42_vdw>
0.645973367145421

> <r_glide_res:A42_coul>
-29.5222471766678

> <r_glide_res:A42_hbond>
-0.197334109037389

> <r_glide_res:A42_dist>
1.88275962350834

> <r_glide_res:A42_Eint>
-29.0736079185598

> <r_glide_res:A16_vdw>
-0.153871856626427

> <r_glide_res:A16_coul>
-6.18505383610404

> <r_glide_res:A16_hbond>
0

> <r_glide_res:A16_dist>
4.96300005213487

> <r_glide_res:A16_Eint>
-6.33892569273046

> <s_m_source_file>
ligprep_Nicaido_neutral.maegz

> <i_m_source_file_index>
12

> <i_lp_mmshare_version>
58128

> <i_f3d_flags>
0

> <s_lp_Force_Field>
S-OPLS

> <r_lp_Energy>
18.714001

> <b_lp_Chiralities_Consistent>
1

> <s_lp_Variant>
Imipenem-1

> <s_epik_input>
W0NIM11bQ0BASF0oW09IXSlbQ0BASF0xQyg9TylOKFtDQEhdMTIpQyhDKD1PKVtPSF0pPUMoW0NIMl0yKVNbQ0gyXVtDSDJdL049W0NIXS9bTkgyXQ==

> <s_epik_cmdline>
J2VwaWtfcHl0aG9uJywgJy1waHQnLCAnMC4wJywgJy1waCcsICc3LjQnLCAnLW50JywgJy1tYScsICc1MDAnLCAnLWltYWUnLCAnPGluZmlsZS5tYWU+JywgJy1vbWFlJywgJzxvdXRmaWxlLm1hZT4n

> <r_lp_tautomer_probability>
1

> <r_epik_Ionization_Penalty>
  0.0001

> <r_epik_Ionization_Penalty_Charging>
  0.0001

> <r_epik_Ionization_Penalty_Neutral>
  0.0000

> <r_epik_State_Penalty>
  0.0000

> <r_epik_Charging_Adjusted_Penalty>
9.5675940864495e-05

> <i_epik_Tot_Q>
0

> <i_epik_Tot_abs_Q>
2

> <s_epik_Chemistry_Notes>
This compound has an imine and may undergo hydrolysis.

> <s_m_subgroup_title>
glide-dock_Nicaido_neutral_pv1

> <s_m_subgroupid>
glide-dock_Nicaido_neutral_pv1

> <b_m_subgroup_collapsed>
0

$$$$
Ampicillin
                    3D
 Schrodinger Suite 2022-2.
 42 44  0  0  1  0            999 V2000
  -28.7122  -19.3247  -25.0462 C   0  0  0  0  0  0
  -30.0829  -19.4845  -24.3514 C   0  0  0  0  0  0
  -30.6195  -20.9606  -24.3061 C   0  0  2  0  0  0
  -30.1443  -21.4791  -23.0362 N   0  0  0  0  0  0
  -29.9493  -20.6541  -21.8605 C   0  0  2  0  0  0
  -29.8388  -18.9990  -22.6023 S   0  0  0  0  0  0
  -28.7549  -21.5527  -21.5284 C   0  0  2  0  0  0
  -29.3740  -22.5146  -22.5620 C   0  0  0  0  0  0
  -29.1945  -23.6597  -22.9281 O   0  0  0  0  0  0
  -28.7695  -22.0010  -20.1454 N   0  0  0  0  0  0
  -28.1113  -23.0642  -19.6682 C   0  0  0  0  0  0
  -27.9651  -23.1231  -18.1480 C   0  0  2  0  0  0
  -26.5179  -22.7897  -17.9347 C   0  0  0  0  0  0
  -25.4917  -23.7655  -18.0134 C   0  0  0  0  0  0
  -24.1381  -23.4351  -17.8075 C   0  0  0  0  0  0
  -23.7747  -22.1067  -17.5280 C   0  0  0  0  0  0
  -24.7687  -21.1154  -17.4654 C   0  0  0  0  0  0
  -26.1176  -21.4581  -17.6738 C   0  0  0  0  0  0
  -28.3690  -24.4209  -17.6134 N   0  0  0  0  0  0
  -27.6141  -23.9495  -20.3761 O   0  0  0  0  0  0
  -30.2739  -21.8289  -25.5322 C   0  0  0  0  0  0
  -29.1383  -22.3496  -25.6133 O   0  5  0  0  0  0
  -31.1493  -21.9500  -26.4133 O   0  0  0  0  0  0
  -31.1031  -18.5417  -25.0117 C   0  0  0  0  0  0
  -28.7692  -19.5282  -26.1153 H   0  0  0  0  0  0
  -28.3305  -18.3086  -24.9351 H   0  0  0  0  0  0
  -27.9683  -19.9958  -24.6158 H   0  0  0  0  0  0
  -31.7066  -20.9440  -24.2162 H   0  0  0  0  0  0
  -30.7811  -20.7190  -21.1544 H   0  0  0  0  0  0
  -27.8062  -21.1092  -21.8348 H   0  0  0  0  0  0
  -29.2606  -21.4046  -19.4844 H   0  0  0  0  0  0
  -28.5973  -22.3636  -17.6821 H   0  0  0  0  0  0
  -25.7500  -24.7919  -18.2218 H   0  0  0  0  0  0
  -23.3790  -24.2004  -17.8624 H   0  0  0  0  0  0
  -22.7394  -21.8455  -17.3658 H   0  0  0  0  0  0
  -24.5026  -20.0898  -17.2542 H   0  0  0  0  0  0
  -26.8645  -20.6781  -17.6147 H   0  0  0  0  0  0
  -28.5461  -25.0885  -18.3452 H   0  0  0  0  0  0
  -27.6519  -24.7963  -16.9991 H   0  0  0  0  0  0
  -31.2858  -18.8198  -26.0496 H   0  0  0  0  0  0
  -32.0593  -18.5634  -24.4880 H   0  0  0  0  0  0
  -30.7506  -17.5090  -25.0010 H   0  0  0  0  0  0
  1  2  1  0  0  0
  1 25  1  0  0  0
  1 26  1  0  0  0
  1 27  1  0  0  0
  2  6  1  0  0  0
  2  3  1  0  0  0
  2 24  1  0  0  0
  3  4  1  0  0  0
  3 21  1  0  0  0
  3 28  1  0  0  0
  4  8  1  0  0  0
  4  5  1  0  0  0
  5  6  1  0  0  0
  5  7  1  0  0  0
  5 29  1  0  0  0
  7  8  1  0  0  0
  7 10  1  0  0  0
  7 30  1  0  0  0
  8  9  2  0  0  0
 10 11  1  0  0  0
 10 31  1  0  0  0
 11 12  1  0  0  0
 11 20  2  0  0  0
 12 13  1  0  0  0
 12 19  1  0  0  0
 12 32  1  0  0  0
 13 18  1  0  0  0
 13 14  2  0  0  0
 14 15  1  0  0  0
 14 33  1  0  0  0
 15 16  2  0  0  0
 15 34  1  0  0  0
 16 17  1  0  0  0
 16 35  1  0  0  0
 17 18  2  0  0  0
 17 36  1  0  0  0
 18 37  1  0  0  0
 19 38  1  0  0  0
 19 39  1  0  0  0
 21 22  1  0  0  0
 21 23  2  0  0  0
 24 40  1  0  0  0
 24 41  1  0  0  0
 24 42  1  0  0  0
M  CHG  1  22  -1
M  END
> <s_m_entry_id>
27360

> <s_m_entry_name>
data_maestro.18

> <s_m_Source_Path>
C:\Users\olshana1\Git\GramNeg-Accumulation\Gram Negative Permeation - OmpF

> <s_m_Source_File>
data_maestro.csv

> <i_m_Source_File_Index>
18

> <s_m_job_name>
glide-dock_Nicaido_neutral

> <s_i_glide_gridfile>
3POX-grid

> <i_i_glide_lignum>
23

> <i_i_glide_rotatable_bonds>
5

> <r_i_docking_score>
-5.26757647594571

> <r_i_glide_ligand_efficiency>
-0.219482353164404

> <r_i_glide_ligand_efficiency_sa>
-0.63309665841217

> <r_i_glide_ligand_efficiency_ln>
-1.26077276402804

> <r_i_glide_gscore>
-5.37347647594571

> <r_i_glide_lipo>
0

> <r_i_glide_hbond>
-1.00397447745231

> <r_i_glide_metal>
0

> <r_i_glide_rewards>
-1.0141725513305

> <r_i_glide_evdw>
-25.6420288085938

> <r_i_glide_ecoul>
-14.0795631408691

> <r_i_glide_erotb>
0.470487855572594

> <r_i_glide_esite>
-0.43178139117543

> <r_i_glide_emodel>
-62.5111125208729

> <r_i_glide_energy>
-39.7215919494629

> <r_i_glide_einternal>
4.33910083770752

> <i_i_glide_confnum>
12

> <i_i_glide_posenum>
383

> <r_i_glide_eff_state_penalty>
0.1059

> <r_glide_res:A132_vdw>
-1.40546353796747

> <r_glide_res:A132_coul>
-30.5242402944867

> <r_glide_res:A132_hbond>
-0.163463818891317

> <r_glide_res:A132_dist>
1.85820199758614

> <r_glide_res:A132_Eint>
-32.0931676513455

> <r_glide_res:A117_vdw>
-3.00275607034397

> <r_glide_res:A117_coul>
23.0994693082358

> <r_glide_res:A117_hbond>
0

> <r_glide_res:A117_dist>
2.47305192307379

> <r_glide_res:A117_Eint>
20.0967132378919

> <r_glide_res:A113_vdw>
-3.97337247407801

> <r_glide_res:A113_coul>
11.0730390810778

> <r_glide_res:A113_hbond>
-0.055494790941551

> <r_glide_res:A113_dist>
2.37881782675408

> <r_glide_res:A113_Eint>
7.04417181605829

> <r_glide_res:A82_vdw>
-1.53889863685055

> <r_glide_res:A82_coul>
-39.9668276470675

> <r_glide_res:A82_hbond>
-0.151239511222092

> <r_glide_res:A82_dist>
2.12190122194477

> <r_glide_res:A82_Eint>
-41.6569657951402

> <r_glide_res:A42_vdw>
1.6525983401842

> <r_glide_res:A42_coul>
-52.9181244603048

> <r_glide_res:A42_hbond>
-0.216491916509293

> <r_glide_res:A42_dist>
1.6797361095407

> <r_glide_res:A42_Eint>
-51.4820180366299

> <r_glide_res:A16_vdw>
0.221400272876123

> <r_glide_res:A16_coul>
-49.3859398032952

> <r_glide_res:A16_hbond>
-0.0972844398880566

> <r_glide_res:A16_dist>
2.06583849954137

> <r_glide_res:A16_Eint>
-49.2618239703071

> <s_m_source_file>
ligprep_Nicaido_neutral.maegz

> <i_m_source_file_index>
18

> <i_lp_mmshare_version>
58128

> <i_f3d_flags>
0

> <s_lp_Force_Field>
S-OPLS

> <r_lp_Energy>
33.736216

> <b_lp_Chiralities_Consistent>
1

> <s_lp_Variant>
Ampicillin-1

> <s_epik_input>
W09IXUMoPU8pW0NAQEhdMUMoW0NIM10pKFtDSDNdKVNbQ0BASF0oTjEyKVtDQEhdKEMyPU8pW05IXUMoPU8pW0NAQEhdKFtOSDJdKWMzW2NIXVtjSF1bY0hdW2NIXVtjSF0z

> <s_epik_cmdline>
J2VwaWtfcHl0aG9uJywgJy1waHQnLCAnMC4wJywgJy1waCcsICc3LjQnLCAnLW50JywgJy1tYScsICc1MDAnLCAnLWltYWUnLCAnPGluZmlsZS5tYWU+JywgJy1vbWFlJywgJzxvdXRmaWxlLm1hZT4n

> <r_epik_Ionization_Penalty>
  0.1060

> <r_epik_Ionization_Penalty_Charging>
  0.0000

> <r_epik_Ionization_Penalty_Neutral>
  0.1059

> <r_epik_State_Penalty>
  0.1059

> <r_epik_Charging_Adjusted_Penalty>
0.105949346496876

> <i_epik_Tot_Q>
-1

> <i_epik_Tot_abs_Q>
1

> <s_epik_Chemistry_Notes>
This compound contains an acetal/aminal-like group ( X-CH(R)-Y where X, Y are N, S, or O) that may be acid/base labile, releasing an aldehyde.

> <s_m_subgroup_title>
glide-dock_Nicaido_neutral_pv1

> <s_m_subgroupid>
glide-dock_Nicaido_neutral_pv1

> <b_m_subgroup_collapsed>
0

$$$$
Ceftazidime
                    3D
 Schrodinger Suite 2022-2.
 58 61  0  0  1  0            999 V2000
  -22.3422  -24.7841  -21.9997 C   0  0  0  0  0  0
  -23.6406  -24.6118  -22.8282 C   0  0  0  0  0  0
  -23.4943  -23.4778  -23.8717 C   0  0  0  0  0  0
  -23.9691  -25.9496  -23.5252 C   0  0  0  0  0  0
  -23.9265  -26.9823  -22.8134 O   0  5  0  0  0  0
  -24.3442  -25.9491  -24.7231 O   0  0  0  0  0  0
  -24.7616  -24.3489  -21.9840 O   0  0  0  0  0  0
  -24.5581  -23.2177  -21.1754 N   0  0  0  0  0  0
  -25.6321  -22.6238  -20.8204 C   0  0  0  0  0  0
  -27.0642  -22.9813  -21.2468 C   0  0  0  0  0  0
  -28.0054  -22.0916  -20.8865 N   0  0  0  0  0  0
  -29.4448  -22.1742  -21.1790 C   0  0  1  0  0  0
  -30.0243  -20.7927  -21.5306 C   0  0  2  0  0  0
  -29.9026  -21.1780  -22.9342 N   0  0  0  0  0  0
  -29.9924  -20.2717  -24.0245 C   0  0  0  0  0  0
  -29.8622  -20.9197  -25.4759 C   0  0  0  0  0  0
  -30.4606  -20.3444  -26.4108 O   0  5  0  0  0  0
  -29.1577  -21.9490  -25.6108 O   0  0  0  0  0  0
  -30.0859  -18.9193  -23.8160 C   0  0  0  0  0  0
  -30.1496  -17.8458  -24.9132 C   0  0  0  0  0  0
  -31.4734  -17.6911  -25.5533 N   0  3  0  0  0  0
  -32.5873  -17.5558  -24.7876 C   0  0  0  0  0  0
  -33.8471  -17.3357  -25.3806 C   0  0  0  0  0  0
  -33.9408  -17.2450  -26.7828 C   0  0  0  0  0  0
  -32.7704  -17.3652  -27.5566 C   0  0  0  0  0  0
  -31.5383  -17.5835  -26.9065 C   0  0  0  0  0  0
  -30.0492  -18.2861  -22.4206 C   0  0  0  0  0  0
  -29.1086  -19.2591  -21.2404 S   0  0  0  0  0  0
  -29.8271  -22.5344  -22.6446 C   0  0  0  0  0  0
  -30.0003  -23.5482  -23.2906 O   0  0  0  0  0  0
  -27.3348  -24.0089  -21.8718 O   0  0  0  0  0  0
  -25.5027  -21.4908  -19.8779 C   0  0  0  0  0  0
  -25.3904  -21.7124  -18.5245 C   0  0  0  0  0  0
  -25.1681  -20.2294  -17.6394 S   0  0  0  0  0  0
  -25.2681  -19.3558  -19.1603 C   0  0  0  0  0  0
  -25.1681  -17.9801  -19.2130 N   0  0  0  0  0  0
  -25.4380  -20.1379  -20.2261 N   0  0  0  0  0  0
  -21.5185  -25.1404  -22.6166 H   0  0  0  0  0  0
  -22.0181  -23.8419  -21.5574 H   0  0  0  0  0  0
  -22.4804  -25.4946  -21.1838 H   0  0  0  0  0  0
  -22.7293  -23.7109  -24.6125 H   0  0  0  0  0  0
  -24.4308  -23.3048  -24.4035 H   0  0  0  0  0  0
  -23.2108  -22.5344  -23.4043 H   0  0  0  0  0  0
  -27.7120  -21.2426  -20.4184 H   0  0  0  0  0  0
  -30.0245  -22.6769  -20.4049 H   0  0  0  0  0  0
  -31.0709  -20.6841  -21.2337 H   0  0  0  0  0  0
  -29.9690  -16.8594  -24.4977 H   0  0  0  0  0  0
  -29.3869  -18.0238  -25.6723 H   0  0  0  0  0  0
  -32.4530  -17.5997  -23.7181 H   0  0  0  0  0  0
  -34.7260  -17.2259  -24.7617 H   0  0  0  0  0  0
  -34.8951  -17.0717  -27.2588 H   0  0  0  0  0  0
  -32.8141  -17.2790  -28.6321 H   0  0  0  0  0  0
  -30.6038  -17.6625  -27.4424 H   0  0  0  0  0  0
  -29.5773  -17.3046  -22.4370 H   0  0  0  0  0  0
  -31.0616  -18.1483  -22.0425 H   0  0  0  0  0  0
  -25.4097  -22.6513  -17.9916 H   0  0  0  0  0  0
  -25.4926  -17.5516  -20.0672 H   0  0  0  0  0  0
  -25.4515  -17.4962  -18.3715 H   0  0  0  0  0  0
  1  2  1  0  0  0
  1 38  1  0  0  0
  1 39  1  0  0  0
  1 40  1  0  0  0
  2  3  1  0  0  0
  2  4  1  0  0  0
  2  7  1  0  0  0
  3 41  1  0  0  0
  3 42  1  0  0  0
  3 43  1  0  0  0
  4  5  1  0  0  0
  4  6  2  0  0  0
  7  8  1  0  0  0
  8  9  2  3  0  0
  9 10  1  0  0  0
  9 32  1  0  0  0
 10 11  1  0  0  0
 10 31  2  0  0  0
 11 12  1  0  0  0
 11 44  1  0  0  0
 12 29  1  0  0  0
 12 13  1  0  0  0
 12 45  1  0  0  0
 13 28  1  0  0  0
 13 14  1  0  0  0
 13 46  1  0  0  0
 14 15  1  0  0  0
 14 29  1  0  0  0
 15 16  1  0  0  0
 15 19  2  0  0  0
 16 17  1  0  0  0
 16 18  2  0  0  0
 19 20  1  0  0  0
 19 27  1  0  0  0
 20 21  1  0  0  0
 20 47  1  0  0  0
 20 48  1  0  0  0
 21 26  1  0  0  0
 21 22  2  0  0  0
 22 23  1  0  0  0
 22 49  1  0  0  0
 23 24  2  0  0  0
 23 50  1  0  0  0
 24 25  1  0  0  0
 24 51  1  0  0  0
 25 26  2  0  0  0
 25 52  1  0  0  0
 26 53  1  0  0  0
 27 28  1  0  0  0
 27 54  1  0  0  0
 27 55  1  0  0  0
 29 30  2  0  0  0
 32 37  1  0  0  0
 32 33  2  0  0  0
 33 34  1  0  0  0
 33 56  1  0  0  0
 34 35  1  0  0  0
 35 36  1  0  0  0
 35 37  2  0  0  0
 36 57  1  0  0  0
 36 58  1  0  0  0
M  CHG  3   5  -1  17  -1  21   1
M  END
> <s_m_entry_id>
27361

> <s_m_entry_name>
data_maestro.30

> <s_m_Source_Path>
C:\Users\olshana1\Git\GramNeg-Accumulation\Gram Negative Permeation - OmpF

> <s_m_Source_File>
data_maestro.csv

> <i_m_Source_File_Index>
30

> <s_m_job_name>
glide-dock_Nicaido_neutral

> <s_i_glide_gridfile>
3POX-grid

> <i_i_glide_lignum>
39

> <i_i_glide_rotatable_bonds>
10

> <r_i_docking_score>
-5.26188055573869

> <r_i_glide_ligand_efficiency>
-0.142212987992938

> <r_i_glide_ligand_efficiency_sa>
-0.473885225607543

> <r_i_glide_ligand_efficiency_ln>
-1.14117853655763

> <r_i_glide_gscore>
-5.26188055573869

> <r_i_glide_lipo>
0

> <r_i_glide_hbond>
-0.933381993895442

> <r_i_glide_metal>
0

> <r_i_glide_rewards>
0.116735029201251

> <r_i_glide_evdw>
-33.053539276123

> <r_i_glide_ecoul>
-17.4304580688477

> <r_i_glide_erotb>
0.556495996469625

> <r_i_glide_esite>
-0.734483913380824

> <r_i_glide_emodel>
-84.336459586543

> <r_i_glide_energy>
-50.4839973449707

> <r_i_glide_einternal>
7.59310436248779

> <i_i_glide_confnum>
102

> <i_i_glide_posenum>
327

> <r_i_glide_eff_state_penalty>
0

> <r_glide_res:A132_vdw>
0.597043770427631

> <r_glide_res:A132_coul>
-55.8050906482761

> <r_glide_res:A132_hbond>
-0.159818579039193

> <r_glide_res:A132_dist>
1.95963311132292

> <r_glide_res:A132_Eint>
-55.3678654568877

> <r_glide_res:A117_vdw>
-3.92089854702399

> <r_glide_res:A117_coul>
15.0326955494592

> <r_glide_res:A117_hbond>
0

> <r_glide_res:A117_dist>
1.89191071372704

> <r_glide_res:A117_Eint>
11.1117970024352

> <r_glide_res:A113_vdw>
-3.12789199716371

> <r_glide_res:A113_coul>
7.32317131698186

> <r_glide_res:A113_hbond>
0

> <r_glide_res:A113_dist>
2.65550169884066

> <r_glide_res:A113_Eint>
4.19527931981815

> <r_glide_res:A82_vdw>
-1.94217834344615

> <r_glide_res:A82_coul>
-69.0622221854818

> <r_glide_res:A82_hbond>
-0.433871533662331

> <r_glide_res:A82_dist>
1.86123458701226

> <r_glide_res:A82_Eint>
-71.4382720625902

> <r_glide_res:A42_vdw>
-2.02156513893524

> <r_glide_res:A42_coul>
-57.7969749944662

> <r_glide_res:A42_hbond>
-0.2

> <r_glide_res:A42_dist>
2.02654519638635

> <r_glide_res:A42_Eint>
-60.0185401334015

> <r_glide_res:A16_vdw>
0.874205854203456

> <r_glide_res:A16_coul>
-36.6345451472721

> <r_glide_res:A16_hbond>
-0.131220054709467

> <r_glide_res:A16_dist>
1.90119890523876

> <r_glide_res:A16_Eint>
-35.8915593477781

> <s_m_source_file>
ligprep_Nicaido_neutral.maegz

> <i_m_source_file_index>
30

> <i_lp_mmshare_version>
58128

> <i_f3d_flags>
0

> <s_lp_Force_Field>
S-OPLS

> <r_lp_Energy>
82.572273

> <b_lp_Chiralities_Consistent>
1

> <s_lp_Variant>
Ceftazidime-2

> <s_epik_input>
W09IXUMoPU8pQyhbQ0gzXSkoW0NIM10pTy9OPUMoYzFbY0hdc2MobjEpW05IMl0pL0MoPU8pW05IXVtDQEBIXTJDKD1PKU4oW0NAQEhdMjMpQyhDKD1PKVtPSF0pPUMoW0NIMl1TMylbQ0gyXVtuK100W2NIXVtjSF1bY0hdW2NIXVtjSF00

> <s_epik_cmdline>
J2VwaWtfcHl0aG9uJywgJy1waHQnLCAnMC4wJywgJy1waCcsICc3LjQnLCAnLW50JywgJy1tYScsICc1MDAnLCAnLWltYWUnLCAnPGluZmlsZS5tYWU+JywgJy1vbWFlJywgJzxvdXRmaWxlLm1hZT4n

> <r_lp_tautomer_probability>
1

> <r_epik_Ionization_Penalty>
  0.0005

> <r_epik_Ionization_Penalty_Charging>
  0.0001

> <r_epik_Ionization_Penalty_Neutral>
  0.0005

> <r_epik_State_Penalty>
  0.0000

> <r_epik_Charging_Adjusted_Penalty>
5.84857251211915e-05

> <i_epik_Tot_Q>
-1

> <i_epik_Tot_abs_Q>
3

> <s_epik_Chemistry_Notes>
This compound has an imine and may undergo hydrolysis. This compound contains an acetal/aminal-like group ( X-CH(R)-Y where X, Y are N, S, or O) that may be acid/base labile, releasing an aldehyde.

> <s_m_subgroup_title>
glide-dock_Nicaido_neutral_pv1

> <s_m_subgroupid>
glide-dock_Nicaido_neutral_pv1

> <b_m_subgroup_collapsed>
0

$$$$
Cefuroxime
                    3D
 Schrodinger Suite 2022-2.
 44 46  0  0  1  0            999 V2000
  -35.5550  -20.0988  -28.8198 C   0  0  0  0  0  0
  -34.7370  -19.0206  -28.4041 O   0  0  0  0  0  0
  -33.6876  -19.5576  -27.6455 N   0  0  0  0  0  0
  -33.0526  -18.6859  -26.9647 C   0  0  0  0  0  0
  -33.3261  -17.2457  -27.0065 C   0  0  0  0  0  0
  -33.6875  -16.2931  -26.0905 C   0  0  0  0  0  0
  -33.8569  -15.0796  -26.8133 C   0  0  0  0  0  0
  -33.5687  -15.3703  -28.1148 C   0  0  0  0  0  0
  -33.2380  -16.6816  -28.2485 O   0  0  0  0  0  0
  -31.9168  -19.1523  -26.0692 C   0  0  0  0  0  0
  -31.2588  -18.1883  -25.3897 N   0  0  0  0  0  0
  -30.0964  -18.3481  -24.4965 C   0  0  1  0  0  0
  -30.2905  -19.3645  -23.3551 C   0  0  1  0  0  0
  -29.0359  -19.9689  -23.7795 N   0  0  0  0  0  0
  -28.9956  -19.3117  -24.9956 C   0  0  0  0  0  0
  -28.3681  -19.4870  -26.0133 O   0  0  0  0  0  0
  -28.5438  -21.1029  -23.1080 C   0  0  0  0  0  0
  -28.2508  -22.4222  -23.9647 C   0  0  0  0  0  0
  -28.3689  -22.3495  -25.2120 O   0  5  0  0  0  0
  -27.9687  -23.4815  -23.3529 O   0  0  0  0  0  0
  -28.3320  -20.9446  -21.7730 C   0  0  0  0  0  0
  -28.6303  -19.6125  -21.0795 C   0  0  0  0  0  0
  -30.1896  -18.8370  -21.6133 S   0  0  0  0  0  0
  -27.6407  -21.9399  -20.8526 C   0  0  0  0  0  0
  -28.5482  -22.4618  -19.9004 O   0  0  0  0  0  0
  -28.2357  -23.5494  -19.1988 C   0  0  0  0  0  0
  -29.1688  -23.7024  -18.2046 N   0  0  0  0  0  0
  -27.2813  -24.2992  -19.4167 O   0  0  0  0  0  0
  -31.6267  -20.3501  -26.0133 O   0  0  0  0  0  0
  -36.3778  -19.7244  -29.4286 H   0  0  0  0  0  0
  -34.9928  -20.8147  -29.4218 H   0  0  0  0  0  0
  -35.9849  -20.6225  -27.9642 H   0  0  0  0  0  0
  -33.8328  -16.4535  -25.0314 H   0  0  0  0  0  0
  -34.1508  -14.1142  -26.4262 H   0  0  0  0  0  0
  -33.5530  -14.7943  -29.0283 H   0  0  0  0  0  0
  -31.5601  -17.2329  -25.5261 H   0  0  0  0  0  0
  -29.7213  -17.3985  -24.1182 H   0  0  0  0  0  0
  -31.1205  -20.0597  -23.4926 H   0  0  0  0  0  0
  -28.6929  -19.7457  -19.9987 H   0  0  0  0  0  0
  -27.8052  -18.9245  -21.2652 H   0  0  0  0  0  0
  -27.1368  -22.7344  -21.3935 H   0  0  0  0  0  0
  -26.8494  -21.4118  -20.3191 H   0  0  0  0  0  0
  -29.9111  -22.9886  -18.1422 H   0  0  0  0  0  0
  -29.0515  -24.4452  -17.5354 H   0  0  0  0  0  0
  1  2  1  0  0  0
  1 30  1  0  0  0
  1 31  1  0  0  0
  1 32  1  0  0  0
  2  3  1  0  0  0
  3  4  2  3  0  0
  4  5  1  0  0  0
  4 10  1  0  0  0
  5  9  1  0  0  0
  5  6  2  0  0  0
  6  7  1  0  0  0
  6 33  1  0  0  0
  7  8  2  0  0  0
  7 34  1  0  0  0
  8  9  1  0  0  0
  8 35  1  0  0  0
 10 11  1  0  0  0
 10 29  2  0  0  0
 11 12  1  0  0  0
 11 36  1  0  0  0
 12 15  1  0  0  0
 12 13  1  0  0  0
 12 37  1  0  0  0
 13 23  1  0  0  0
 13 14  1  0  0  0
 13 38  1  0  0  0
 14 15  1  0  0  0
 14 17  1  0  0  0
 15 16  2  0  0  0
 17 18  1  0  0  0
 17 21  2  0  0  0
 18 19  1  0  0  0
 18 20  2  0  0  0
 21 22  1  0  0  0
 21 24  1  0  0  0
 22 23  1  0  0  0
 22 39  1  0  0  0
 22 40  1  0  0  0
 24 25  1  0  0  0
 24 41  1  0  0  0
 24 42  1  0  0  0
 25 26  1  0  0  0
 26 27  1  0  0  0
 26 28  2  0  0  0
 27 43  1  0  0  0
 27 44  1  0  0  0
M  CHG  1  19  -1
M  END
> <s_m_entry_id>
27362

> <s_m_entry_name>
data_maestro.10

> <s_m_Source_Path>
C:\Users\olshana1\Git\GramNeg-Accumulation\Gram Negative Permeation - OmpF

> <s_m_Source_File>
data_maestro.csv

> <i_m_Source_File_Index>
10

> <s_m_job_name>
glide-dock_Nicaido_neutral

> <s_i_glide_gridfile>
3POX-grid

> <i_i_glide_lignum>
13

> <i_i_glide_rotatable_bonds>
9

> <r_i_docking_score>
-5.24951235576207

> <r_i_glide_ligand_efficiency>
-0.181017667440072

> <r_i_glide_ligand_efficiency_sa>
-0.556143624798303

> <r_i_glide_ligand_efficiency_ln>
-1.20200521332175

> <r_i_glide_gscore>
-5.24951235576207

> <r_i_glide_lipo>
-0.381027078592414

> <r_i_glide_hbond>
-0.844177991064459

> <r_i_glide_metal>
0

> <r_i_glide_rewards>
-0.505283063597023

> <r_i_glide_evdw>
-30.1801109313965

> <r_i_glide_ecoul>
-13.836519241333

> <r_i_glide_erotb>
0.663396273735242

> <r_i_glide_esite>
-0.597937063473645

> <r_i_glide_emodel>
-69.7507462088673

> <r_i_glide_energy>
-44.0166301727295

> <r_i_glide_einternal>
6.00595903396606

> <i_i_glide_confnum>
73

> <i_i_glide_posenum>
245

> <r_i_glide_eff_state_penalty>
0

> <r_glide_res:A132_vdw>
-0.959586457853169

> <r_glide_res:A132_coul>
-36.0526771097432

> <r_glide_res:A132_hbond>
-0.155027246816935

> <r_glide_res:A132_dist>
2.00695990216083

> <r_glide_res:A132_Eint>
-37.1672908144133

> <r_glide_res:A117_vdw>
-5.0579118182966

> <r_glide_res:A117_coul>
25.3405958153545

> <r_glide_res:A117_hbond>
0

> <r_glide_res:A117_dist>
2.09787815446617

> <r_glide_res:A117_Eint>
20.2826839970579

> <r_glide_res:A113_vdw>
-0.708075427932251

> <r_glide_res:A113_coul>
16.2667567035578

> <r_glide_res:A113_hbond>
-0.16

> <r_glide_res:A113_dist>
1.66198366828854

> <r_glide_res:A113_Eint>
15.3986812756255

> <r_glide_res:A82_vdw>
-0.635107463340616

> <r_glide_res:A82_coul>
-46.2084668874663

> <r_glide_res:A82_hbond>
-0.174071121386676

> <r_glide_res:A82_dist>
1.96456543374228

> <r_glide_res:A82_Eint>
-47.0176454721936

> <r_glide_res:A42_vdw>
0.205855762882272

> <r_glide_res:A42_coul>
-52.8379644954373

> <r_glide_res:A42_hbond>
-0.349079276392987

> <r_glide_res:A42_dist>
1.90658698270943

> <r_glide_res:A42_Eint>
-52.9811880089481

> <r_glide_res:A16_vdw>
-2.07568985263436

> <r_glide_res:A16_coul>
-40.0932812690655

> <r_glide_res:A16_hbond>
0

> <r_glide_res:A16_dist>
2.62168438365617

> <r_glide_res:A16_Eint>
-42.1689711216999

> <s_m_source_file>
ligprep_Nicaido_neutral.maegz

> <i_m_source_file_index>
10

> <i_lp_mmshare_version>
58128

> <i_f3d_flags>
0

> <s_lp_Force_Field>
S-OPLS

> <r_lp_Energy>
41.721283

> <b_lp_Chiralities_Consistent>
1

> <s_lp_Variant>
Cefuroxime-1

> <s_epik_input>
bzFbY0hdW2NIXVtjSF1jMS9DKD1OXE9bQ0gzXSlDKD1PKVtOSF1bQ0BASF0yQyg9TylOKFtDQEhdMjMpQyhDKD1PKVtPSF0pPUMoW0NIMl1TMylbQ0gyXU9DKD1PKVtOSDJd

> <s_epik_cmdline>
J2VwaWtfcHl0aG9uJywgJy1waHQnLCAnMC4wJywgJy1waCcsICc3LjQnLCAnLW50JywgJy1tYScsICc1MDAnLCAnLWltYWUnLCAnPGluZmlsZS5tYWU+JywgJy1vbWFlJywgJzxvdXRmaWxlLm1hZT4n

> <r_lp_tautomer_probability>
1

> <r_epik_Ionization_Penalty>
  0.0000

> <r_epik_Ionization_Penalty_Charging>
  0.0000

> <r_epik_Ionization_Penalty_Neutral>
  0.0000

> <r_epik_State_Penalty>
  0.0000

> <r_epik_Charging_Adjusted_Penalty>
8.57368987839538e-06

> <i_epik_Tot_Q>
-1

> <i_epik_Tot_abs_Q>
1

> <s_epik_Chemistry_Notes>
This compound has an ester and may undergo hydrolysis at high or low pH. This compound has an imine and may undergo hydrolysis. This compound contains an acetal/aminal-like group ( X-CH(R)-Y where X, Y are N, S, or O) that may be acid/base labile, releasing an aldehyde.

> <s_m_subgroup_title>
glide-dock_Nicaido_neutral_pv1

> <s_m_subgroupid>
glide-dock_Nicaido_neutral_pv1

> <b_m_subgroup_collapsed>
0

$$$$
Imipenem
                    3D
 Schrodinger Suite 2022-2.
 37 38  0  0  1  0            999 V2000
  -23.2235  -19.9002  -26.1465 C   0  0  0  0  0  0
  -23.7510  -21.3144  -25.8762 C   0  0  2  0  0  0
  -23.9452  -21.5913  -24.3790 C   0  0  1  0  0  0
  -25.0473  -20.8449  -23.5931 C   0  0  2  0  0  0
  -24.9319  -20.3417  -22.1442 C   0  0  0  0  0  0
  -25.9034  -21.2227  -21.4010 C   0  0  0  0  0  0
  -26.3003  -20.8545  -19.7114 S   0  0  0  0  0  0
  -28.1080  -20.6942  -19.6836 C   0  0  0  0  0  0
  -28.5975  -19.4306  -20.4134 C   0  0  0  0  0  0
  -29.7970  -19.7159  -21.2134 N   0  3  0  0  0  0
  -30.7689  -18.8480  -21.5495 C   0  0  0  0  0  0
  -30.7689  -17.5496  -21.2134 N   0  0  0  0  0  0
  -26.2941  -22.2540  -22.1615 C   0  0  0  0  0  0
  -25.7059  -22.1312  -23.4145 N   0  0  0  0  0  0
  -24.7689  -22.8751  -24.1014 C   0  0  0  0  0  0
  -24.6592  -24.0685  -24.2944 O   0  0  0  0  0  0
  -27.2137  -23.4764  -21.8446 C   0  0  0  0  0  0
  -27.1689  -23.9496  -20.6889 O   0  5  0  0  0  0
  -27.8510  -23.9496  -22.8134 O   0  0  0  0  0  0
  -22.8322  -22.2473  -26.4134 O   0  0  0  0  0  0
  -23.9222  -19.1496  -25.7766 H   0  0  0  0  0  0
  -23.0894  -19.7197  -27.2133 H   0  0  0  0  0  0
  -22.2652  -19.7292  -25.6548 H   0  0  0  0  0  0
  -24.6952  -21.4335  -26.4102 H   0  0  0  0  0  0
  -23.0047  -21.5622  -23.8274 H   0  0  0  0  0  0
  -25.6687  -20.2089  -24.2272 H   0  0  0  0  0  0
  -23.9277  -20.4750  -21.7410 H   0  0  0  0  0  0
  -25.2069  -19.2899  -22.0537 H   0  0  0  0  0  0
  -28.5600  -21.5999  -20.0864 H   0  0  0  0  0  0
  -28.4147  -20.6430  -18.6382 H   0  0  0  0  0  0
  -28.8083  -18.6507  -19.6818 H   0  0  0  0  0  0
  -27.8311  -19.0403  -21.0835 H   0  0  0  0  0  0
  -31.6028  -19.2217  -22.1317 H   0  0  0  0  0  0
  -30.0349  -17.1646  -20.6150 H   0  0  0  0  0  0
  -31.4342  -16.8949  -21.6260 H   0  0  0  0  0  0
  -22.6335  -22.0075  -27.3078 H   0  0  0  0  0  0
  -29.9379  -20.6871  -21.4492 H   0  0  0  0  0  0
  1  2  1  0  0  0
  1 21  1  0  0  0
  1 22  1  0  0  0
  1 23  1  0  0  0
  2  3  1  0  0  0
  2 20  1  0  0  0
  2 24  1  0  0  0
  3 15  1  0  0  0
  3  4  1  0  0  0
  3 25  1  0  0  0
  4 14  1  0  0  0
  4  5  1  0  0  0
  4 26  1  0  0  0
  5  6  1  0  0  0
  5 27  1  0  0  0
  5 28  1  0  0  0
  6  7  1  0  0  0
  6 13  2  0  0  0
  7  8  1  0  0  0
  8  9  1  0  0  0
  8 29  1  0  0  0
  8 30  1  0  0  0
  9 10  1  0  0  0
  9 31  1  0  0  0
  9 32  1  0  0  0
 10 11  2  3  0  0
 10 37  1  0  0  0
 11 12  1  0  0  0
 11 33  1  0  0  0
 12 34  1  0  0  0
 12 35  1  0  0  0
 13 14  1  0  0  0
 13 17  1  0  0  0
 14 15  1  0  0  0
 15 16  2  0  0  0
 17 18  1  0  0  0
 17 19  2  0  0  0
 20 36  1  0  0  0
M  CHG  2  10   1  18  -1
M  END
> <s_m_entry_id>
27363

> <s_m_entry_name>
data_maestro.12

> <s_m_Source_Path>
C:\Users\olshana1\Git\GramNeg-Accumulation\Gram Negative Permeation - OmpF

> <s_m_Source_File>
data_maestro.csv

> <i_m_Source_File_Index>
12

> <s_m_job_name>
glide-dock_Nicaido_neutral

> <s_i_glide_gridfile>
3POX-grid

> <i_i_glide_lignum>
17

> <i_i_glide_rotatable_bonds>
7

> <r_i_docking_score>
-5.24456700446954

> <r_i_glide_ligand_efficiency>
-0.262228350223477

> <r_i_glide_ligand_efficiency_sa>
-0.71179725270644

> <r_i_glide_ligand_efficiency_ln>
-1.31254214382206

> <r_i_glide_gscore>
-5.24456700446954

> <r_i_glide_lipo>
0

> <r_i_glide_hbond>
-0.535302209515051

> <r_i_glide_metal>
0

> <r_i_glide_rewards>
-1.36808809090909

> <r_i_glide_evdw>
-15.6477746963501

> <r_i_glide_ecoul>
-20.8521633148193

> <r_i_glide_erotb>
1.02473259195513

> <r_i_glide_esite>
-0.455696063960116

> <r_i_glide_emodel>
-64.4913113583845

> <r_i_glide_energy>
-36.4999380111694

> <r_i_glide_einternal>
4.7444224357605

> <i_i_glide_confnum>
266

> <i_i_glide_posenum>
280

> <r_i_glide_eff_state_penalty>
0

> <r_glide_res:A132_vdw>
-1.0457745687405

> <r_glide_res:A132_coul>
-30.3921144744072

> <r_glide_res:A132_hbond>
-0.329827360461147

> <r_glide_res:A132_dist>
2.05467812530892

> <r_glide_res:A132_Eint>
-31.7677164036088

> <r_glide_res:A117_vdw>
-2.94161969662374

> <r_glide_res:A117_coul>
-8.55186404566805

> <r_glide_res:A117_hbond>
0

> <r_glide_res:A117_dist>
2.47251857299301

> <r_glide_res:A117_Eint>
-11.4934837422918

> <r_glide_res:A113_vdw>
-0.721639923469211

> <r_glide_res:A113_coul>
-16.3557693343568

> <r_glide_res:A113_hbond>
0

> <r_glide_res:A113_dist>
2.58786144991467

> <r_glide_res:A113_Eint>
-17.077409257826

> <r_glide_res:A82_vdw>
1.13496514717773

> <r_glide_res:A82_coul>
-33.1990433044155

> <r_glide_res:A82_hbond>
-0.205474849053903

> <r_glide_res:A82_dist>
1.68825044125514

> <r_glide_res:A82_Eint>
-32.2695530062916

> <r_glide_res:A42_vdw>
-1.60899897217741

> <r_glide_res:A42_coul>
-12.9019228261857

> <r_glide_res:A42_hbond>
0

> <r_glide_res:A42_dist>
2.46955770855954

> <r_glide_res:A42_Eint>
-14.5109217983631

> <r_glide_res:A16_vdw>
-0.1335321252184

> <r_glide_res:A16_coul>
0.786684155889585

> <r_glide_res:A16_hbond>
0

> <r_glide_res:A16_dist>
5.85900777028226

> <r_glide_res:A16_Eint>
0.653152030671186

> <s_m_source_file>
ligprep_Nicaido_neutral.maegz

> <i_m_source_file_index>
12

> <i_lp_mmshare_version>
58128

> <i_f3d_flags>
0

> <s_lp_Force_Field>
S-OPLS

> <r_lp_Energy>
22.988374

> <b_lp_Chiralities_Consistent>
1

> <s_lp_Variant>
Imipenem-2

> <s_epik_input>
W0NIM11bQ0BASF0oW09IXSlbQ0BASF0xQyg9TylOKFtDQEhdMTIpQyhDKD1PKVtPSF0pPUMoW0NIMl0yKVNbQ0gyXVtDSDJdL049W0NIXS9bTkgyXQ==

> <s_epik_cmdline>
J2VwaWtfcHl0aG9uJywgJy1waHQnLCAnMC4wJywgJy1waCcsICc3LjQnLCAnLW50JywgJy1tYScsICc1MDAnLCAnLWltYWUnLCAnPGluZmlsZS5tYWU+JywgJy1vbWFlJywgJzxvdXRmaWxlLm1hZT4n

> <r_lp_tautomer_probability>
1

> <r_epik_Ionization_Penalty>
  0.0001

> <r_epik_Ionization_Penalty_Charging>
  0.0001

> <r_epik_Ionization_Penalty_Neutral>
  0.0000

> <r_epik_State_Penalty>
  0.0000

> <r_epik_Charging_Adjusted_Penalty>
9.5675940864495e-05

> <i_epik_Tot_Q>
0

> <i_epik_Tot_abs_Q>
2

> <s_epik_Chemistry_Notes>
This compound has an imine and may undergo hydrolysis.

> <s_m_subgroup_title>
glide-dock_Nicaido_neutral_pv1

> <s_m_subgroupid>
glide-dock_Nicaido_neutral_pv1

> <b_m_subgroup_collapsed>
0

$$$$
Cephalosporin C
                    3D
 Schrodinger Suite 2022-2.
 45 46  0  0  1  0            999 V2000
  -34.5616  -18.0480  -25.6418 O   0  0  0  0  0  0
  -34.4093  -18.9384  -26.4773 C   0  0  0  0  0  0
  -33.7961  -20.1169  -26.2770 O   0  0  0  0  0  0
  -33.2345  -20.4403  -25.0106 C   0  0  0  0  0  0
  -31.7763  -20.0018  -24.9182 C   0  0  0  0  0  0
  -30.7368  -20.7829  -25.3191 C   0  0  0  0  0  0
  -29.4012  -20.3379  -25.2544 N   0  0  0  0  0  0
  -29.0363  -18.9450  -25.0725 C   0  0  2  0  0  0
  -27.5549  -19.3876  -25.1252 C   0  0  2  0  0  0
  -28.1088  -20.8258  -25.2183 C   0  0  0  0  0  0
  -27.6564  -21.9496  -25.2133 O   0  0  0  0  0  0
  -26.8146  -19.1496  -23.8975 N   0  0  0  0  0  0
  -25.6713  -19.7563  -23.5500 C   0  0  0  0  0  0
  -25.2127  -19.5406  -22.1092 C   0  0  0  0  0  0
  -25.6711  -20.6999  -21.2002 C   0  0  0  0  0  0
  -27.2087  -20.8212  -21.0793 C   0  0  0  0  0  0
  -27.7111  -21.9810  -20.1968 C   0  0  2  0  0  0
  -27.3861  -23.3524  -20.8250 C   0  0  0  0  0  0
  -26.3680  -23.9495  -20.4134 O   0  5  0  0  0  0
  -28.1542  -23.8221  -21.6964 O   0  0  0  0  0  0
  -29.1689  -21.8654  -20.0134 N   0  3  0  0  0  0
  -25.0428  -20.5089  -24.2950 O   0  0  0  0  0  0
  -29.9425  -18.3495  -23.6139 S   0  0  0  0  0  0
  -31.5963  -18.6122  -24.3048 C   0  0  0  0  0  0
  -30.9450  -22.2594  -25.8044 C   0  0  0  0  0  0
  -31.6716  -22.4059  -26.8122 O   0  5  0  0  0  0
  -30.2926  -23.1496  -25.2159 O   0  0  0  0  0  0
  -34.7590  -18.8881  -27.5083 H   0  0  0  0  0  0
  -33.3073  -21.5195  -24.8803 H   0  0  0  0  0  0
  -33.8142  -20.0103  -24.1924 H   0  0  0  0  0  0
  -29.3099  -18.3560  -25.9501 H   0  0  0  0  0  0
  -27.0417  -19.0247  -26.0158 H   0  0  0  0  0  0
  -27.2041  -18.4698  -23.2512 H   0  0  0  0  0  0
  -25.5842  -18.5861  -21.7333 H   0  0  0  0  0  0
  -24.1246  -19.4706  -22.1014 H   0  0  0  0  0  0
  -25.2448  -20.5600  -20.2063 H   0  0  0  0  0  0
  -25.2482  -21.6311  -21.5789 H   0  0  0  0  0  0
  -27.6605  -20.9340  -22.0651 H   0  0  0  0  0  0
  -27.5944  -19.8791  -20.6850 H   0  0  0  0  0  0
  -27.2532  -21.9114  -19.2087 H   0  0  0  0  0  0
  -29.5005  -22.5653  -19.3644 H   0  0  0  0  0  0
  -29.4261  -20.9572  -19.6416 H   0  0  0  0  0  0
  -31.7945  -17.8548  -25.0635 H   0  0  0  0  0  0
  -32.3161  -18.4586  -23.5002 H   0  0  0  0  0  0
  -29.6210  -22.0052  -20.9050 H   0  0  0  0  0  0
  1  2  2  0  0  0
  2  3  1  0  0  0
  2 28  1  0  0  0
  3  4  1  0  0  0
  4  5  1  0  0  0
  4 29  1  0  0  0
  4 30  1  0  0  0
  5 24  1  0  0  0
  5  6  2  0  0  0
  6  7  1  0  0  0
  6 25  1  0  0  0
  7 10  1  0  0  0
  7  8  1  0  0  0
  8  9  1  0  0  0
  8 23  1  0  0  0
  8 31  1  0  0  0
  9 10  1  0  0  0
  9 12  1  0  0  0
  9 32  1  0  0  0
 10 11  2  0  0  0
 12 13  1  0  0  0
 12 33  1  0  0  0
 13 14  1  0  0  0
 13 22  2  0  0  0
 14 15  1  0  0  0
 14 34  1  0  0  0
 14 35  1  0  0  0
 15 16  1  0  0  0
 15 36  1  0  0  0
 15 37  1  0  0  0
 16 17  1  0  0  0
 16 38  1  0  0  0
 16 39  1  0  0  0
 17 18  1  0  0  0
 17 21  1  0  0  0
 17 40  1  0  0  0
 18 19  1  0  0  0
 18 20  2  0  0  0
 21 41  1  0  0  0
 21 42  1  0  0  0
 21 45  1  0  0  0
 23 24  1  0  0  0
 24 43  1  0  0  0
 24 44  1  0  0  0
 25 26  1  0  0  0
 25 27  2  0  0  0
M  CHG  3  19  -1  21   1  26  -1
M  END
> <s_m_entry_id>
27364

> <s_m_entry_name>
data_maestro.25

> <s_m_Source_Path>
C:\Users\olshana1\Git\GramNeg-Accumulation\Gram Negative Permeation - OmpF

> <s_m_Source_File>
data_maestro.csv

> <i_m_Source_File_Index>
25

> <s_m_job_name>
glide-dock_Nicaido_neutral

> <s_i_glide_gridfile>
3POX-grid

> <i_i_glide_lignum>
32

> <i_i_glide_rotatable_bonds>
11

> <r_i_docking_score>
-5.24016558469083

> <r_i_glide_ligand_efficiency>
-0.194080206840401

> <r_i_glide_ligand_efficiency_sa>
-0.582240619881547

> <r_i_glide_ligand_efficiency_ln>
-1.21982415723455

> <r_i_glide_gscore>
-5.24016558469083

> <r_i_glide_lipo>
0

> <r_i_glide_hbond>
-1.21639661195724

> <r_i_glide_metal>
0

> <r_i_glide_rewards>
-0.678184911994072

> <r_i_glide_evdw>
-16.2811622619629

> <r_i_glide_ecoul>
-19.2986145019531

> <r_i_glide_erotb>
0.97830559423054

> <r_i_glide_esite>
-0.615039366578945

> <r_i_glide_emodel>
-68.0162039649767

> <r_i_glide_energy>
-35.579776763916

> <r_i_glide_einternal>
3.56305623054504

> <i_i_glide_confnum>
84

> <i_i_glide_posenum>
374

> <r_i_glide_eff_state_penalty>
0

> <r_glide_res:A132_vdw>
0.59923466557479

> <r_glide_res:A132_coul>
-46.2791602523682

> <r_glide_res:A132_hbond>
-0.29444851815945

> <r_glide_res:A132_dist>
1.88780213912993

> <r_glide_res:A132_Eint>
-45.9743741049528

> <r_glide_res:A117_vdw>
-4.76590192257743

> <r_glide_res:A117_coul>
13.6151093074675

> <r_glide_res:A117_hbond>
-0.32

> <r_glide_res:A117_dist>
1.85388417995206

> <r_glide_res:A117_Eint>
8.52920738489011

> <r_glide_res:A113_vdw>
0.652659748688929

> <r_glide_res:A113_coul>
-10.6777275589719

> <r_glide_res:A113_hbond>
-0.228259765695546

> <r_glide_res:A113_dist>
2.06578324780645

> <r_glide_res:A113_Eint>
-10.2533275759785

> <r_glide_res:A82_vdw>
-2.0392833712969

> <r_glide_res:A82_coul>
-50.0811048776916

> <r_glide_res:A82_hbond>
0

> <r_glide_res:A82_dist>
2.60776494334507

> <r_glide_res:A82_Eint>
-52.1203882489885

> <r_glide_res:A42_vdw>
1.7926594067756

> <r_glide_res:A42_coul>
-57.8518281283724

> <r_glide_res:A42_hbond>
-0.36

> <r_glide_res:A42_dist>
1.63018325386773

> <r_glide_res:A42_Eint>
-56.4191687215968

> <r_glide_res:A16_vdw>
-0.14584867080147

> <r_glide_res:A16_coul>
-44.9953319448215

> <r_glide_res:A16_hbond>
-0.013688328102247

> <r_glide_res:A16_dist>
2.27170473395208

> <r_glide_res:A16_Eint>
-45.1548689437252

> <s_m_source_file>
ligprep_Nicaido_neutral.maegz

> <i_m_source_file_index>
25

> <i_lp_mmshare_version>
58128

> <i_f3d_flags>
0

> <s_lp_Force_Field>
S-OPLS

> <r_lp_Energy>
27.061927

> <b_lp_Chiralities_Consistent>
1

> <s_lp_Variant>
Cephalosporin C-1

> <s_epik_input>
Tz1bQ0hdT1tDSDJdQyg9QzFDKD1PKVtPSF0pW0NIMl1TW0NASF0oTjEyKVtDQEhdKEMyPU8pW05IXUMoPU8pW0NIMl1bQ0gyXVtDSDJdW0NAQEhdKFtOSDJdKUMoPU8pW09IXQ==

> <s_epik_cmdline>
J2VwaWtfcHl0aG9uJywgJy1waHQnLCAnMC4wJywgJy1waCcsICc3LjQnLCAnLW50JywgJy1tYScsICc1MDAnLCAnLWltYWUnLCAnPGluZmlsZS5tYWU+JywgJy1vbWFlJywgJzxvdXRmaWxlLm1hZT4n

> <r_lp_tautomer_probability>
1

> <r_epik_Ionization_Penalty>
  0.0034

> <r_epik_Ionization_Penalty_Charging>
  0.0034

> <r_epik_Ionization_Penalty_Neutral>
  0.0000

> <r_epik_State_Penalty>
  0.0000

> <r_epik_Charging_Adjusted_Penalty>
0.00339038450865705

> <i_epik_Tot_Q>
-1

> <i_epik_Tot_abs_Q>
3

> <s_epik_Chemistry_Notes>
This compound has an ester and may undergo hydrolysis at high or low pH. This compound contains an acetal/aminal-like group ( X-CH(R)-Y where X, Y are N, S, or O) that may be acid/base labile, releasing an aldehyde.

> <s_m_subgroup_title>
glide-dock_Nicaido_neutral_pv1

> <s_m_subgroupid>
glide-dock_Nicaido_neutral_pv1

> <b_m_subgroup_collapsed>
0

$$$$
Ceftizoxime
                    3D
 Schrodinger Suite 2022-2.
 37 39  0  0  1  0            999 V2000
  -24.6523  -22.4116  -15.8221 C   0  0  0  0  0  0
  -24.9412  -21.8237  -17.0757 O   0  0  0  0  0  0
  -26.0460  -22.4957  -17.6211 N   0  0  0  0  0  0
  -26.3385  -22.1140  -18.8009 C   0  0  0  0  0  0
  -25.5286  -21.1675  -19.6278 C   0  0  0  0  0  0
  -24.1723  -21.3664  -19.7741 C   0  0  0  0  0  0
  -23.4280  -20.1818  -20.8066 S   0  0  0  0  0  0
  -25.0067  -19.4542  -21.0267 C   0  0  0  0  0  0
  -25.1662  -18.3498  -21.8356 N   0  0  0  0  0  0
  -25.9890  -20.0654  -20.3634 N   0  0  0  0  0  0
  -27.5071  -22.7466  -19.5177 C   0  0  0  0  0  0
  -28.3691  -21.8677  -20.0513 N   0  0  0  0  0  0
  -29.5615  -22.2274  -20.8217 C   0  0  1  0  0  0
  -30.1101  -21.0255  -21.6157 C   0  0  1  0  0  0
  -29.8674  -21.7884  -22.8278 N   0  0  0  0  0  0
  -29.2427  -22.8567  -22.2043 C   0  0  0  0  0  0
  -28.7017  -23.8634  -22.6202 O   0  0  0  0  0  0
  -30.2063  -21.2888  -24.0995 C   0  0  0  0  0  0
  -29.5162  -21.9164  -25.3493 C   0  0  0  0  0  0
  -28.3516  -22.3496  -25.2133 O   0  5  0  0  0  0
  -30.1751  -21.9364  -26.4131 O   0  0  0  0  0  0
  -31.0711  -20.2602  -24.2525 C   0  0  0  0  0  0
  -31.8148  -19.5524  -23.1321 C   0  0  0  0  0  0
  -31.8692  -20.5429  -21.6185 S   0  0  0  0  0  0
  -27.6249  -23.9714  -19.6095 O   0  0  0  0  0  0
  -23.8169  -21.8934  -15.3526 H   0  0  0  0  0  0
  -25.5045  -22.3559  -15.1431 H   0  0  0  0  0  0
  -24.3722  -23.4576  -15.9508 H   0  0  0  0  0  0
  -23.5656  -22.1333  -19.3174 H   0  0  0  0  0  0
  -26.0778  -17.9264  -22.0132 H   0  0  0  0  0  0
  -24.4098  -17.9947  -22.4030 H   0  0  0  0  0  0
  -28.2050  -20.8803  -19.8996 H   0  0  0  0  0  0
  -30.3306  -22.7430  -20.2463 H   0  0  0  0  0  0
  -29.4650  -20.1443  -21.5760 H   0  0  0  0  0  0
  -31.2662  -19.8760  -25.2430 H   0  0  0  0  0  0
  -31.3208  -18.6037  -22.9251 H   0  0  0  0  0  0
  -32.8356  -19.3340  -23.4455 H   0  0  0  0  0  0
  1  2  1  0  0  0
  1 26  1  0  0  0
  1 27  1  0  0  0
  1 28  1  0  0  0
  2  3  1  0  0  0
  3  4  2  3  0  0
  4  5  1  0  0  0
  4 11  1  0  0  0
  5 10  1  0  0  0
  5  6  2  0  0  0
  6  7  1  0  0  0
  6 29  1  0  0  0
  7  8  1  0  0  0
  8  9  1  0  0  0
  8 10  2  0  0  0
  9 30  1  0  0  0
  9 31  1  0  0  0
 11 12  1  0  0  0
 11 25  2  0  0  0
 12 13  1  0  0  0
 12 32  1  0  0  0
 13 16  1  0  0  0
 13 14  1  0  0  0
 13 33  1  0  0  0
 14 24  1  0  0  0
 14 15  1  0  0  0
 14 34  1  0  0  0
 15 16  1  0  0  0
 15 18  1  0  0  0
 16 17  2  0  0  0
 18 19  1  0  0  0
 18 22  2  0  0  0
 19 20  1  0  0  0
 19 21  2  0  0  0
 22 23  1  0  0  0
 22 35  1  0  0  0
 23 24  1  0  0  0
 23 36  1  0  0  0
 23 37  1  0  0  0
M  CHG  1  20  -1
M  END
> <s_m_entry_id>
27365

> <s_m_entry_name>
data_maestro.5

> <s_m_Source_Path>
C:\Users\olshana1\Git\GramNeg-Accumulation\Gram Negative Permeation - OmpF

> <s_m_Source_File>
data_maestro.csv

> <i_m_Source_File_Index>
5

> <s_m_job_name>
glide-dock_Nicaido_neutral

> <s_i_glide_gridfile>
3POX-grid

> <i_i_glide_lignum>
5

> <i_i_glide_rotatable_bonds>
6

> <r_i_docking_score>
-5.23936245071732

> <r_i_glide_ligand_efficiency>
-0.209574498028693

> <r_i_glide_ligand_efficiency_sa>
-0.612799549055447

> <r_i_glide_ligand_efficiency_ln>
-1.24188591184264

> <r_i_glide_gscore>
-5.23936245071732

> <r_i_glide_lipo>
-0.0440540278271116

> <r_i_glide_hbond>
-1.35548515681682

> <r_i_glide_metal>
0

> <r_i_glide_rewards>
-0.801694484105269

> <r_i_glide_evdw>
-23.5304775238037

> <r_i_glide_ecoul>
-12.4864902496338

> <r_i_glide_erotb>
0.664075194683877

> <r_i_glide_esite>
-0.652706563016746

> <r_i_glide_emodel>
-57.1091032014603

> <r_i_glide_energy>
-36.0169677734375

> <r_i_glide_einternal>
8.35647106170654

> <i_i_glide_confnum>
93

> <i_i_glide_posenum>
236

> <r_i_glide_eff_state_penalty>
0

> <r_glide_res:A132_vdw>
-1.77758333614379

> <r_glide_res:A132_coul>
-32.1353724455078

> <r_glide_res:A132_hbond>
-0.16

> <r_glide_res:A132_dist>
2.03428475673407

> <r_glide_res:A132_Eint>
-34.0729557816516

> <r_glide_res:A117_vdw>
-0.167481903653991

> <r_glide_res:A117_coul>
19.6213711630878

> <r_glide_res:A117_hbond>
-0.32

> <r_glide_res:A117_dist>
1.75865889583255

> <r_glide_res:A117_Eint>
19.1338892594338

> <r_glide_res:A113_vdw>
-3.68542476299338

> <r_glide_res:A113_coul>
18.2722056233473

> <r_glide_res:A113_hbond>
0

> <r_glide_res:A113_dist>
2.40830612506626

> <r_glide_res:A113_Eint>
14.5867808603539

> <r_glide_res:A82_vdw>
-1.67444350215325

> <r_glide_res:A82_coul>
-40.4810643637049

> <r_glide_res:A82_hbond>
-0.19639381270012

> <r_glide_res:A82_dist>
2.17309575410728

> <r_glide_res:A82_Eint>
-42.3519016785583

> <r_glide_res:A42_vdw>
1.32070883279837

> <r_glide_res:A42_coul>
-52.9774121452246

> <r_glide_res:A42_hbond>
-0.479091344116696

> <r_glide_res:A42_dist>
1.89208387054027

> <r_glide_res:A42_Eint>
-52.1357946565429

> <r_glide_res:A16_vdw>
0.18182790782895

> <r_glide_res:A16_coul>
-46.2847843517445

> <r_glide_res:A16_hbond>
-0.2

> <r_glide_res:A16_dist>
1.87810710469926

> <r_glide_res:A16_Eint>
-46.3029564439155

> <s_m_source_file>
ligprep_Nicaido_neutral.maegz

> <i_m_source_file_index>
5

> <i_lp_mmshare_version>
58128

> <i_f3d_flags>
0

> <s_lp_Force_Field>
S-OPLS

> <r_lp_Energy>
52.616387

> <b_lp_Chiralities_Consistent>
1

> <s_lp_Variant>
Ceftizoxime-1

> <s_epik_input>
W05IMl1jKG4xKXNbY0hdYzEvQyg9TlxPW0NIM10pQyg9TylbTkhdW0NAQEhdMkMoPU8pTihbQ0BIXTIzKUMoQyg9TylbT0hdKT1bQ0hdW0NIMl1TMw==

> <s_epik_cmdline>
J2VwaWtfcHl0aG9uJywgJy1waHQnLCAnMC4wJywgJy1waCcsICc3LjQnLCAnLW50JywgJy1tYScsICc1MDAnLCAnLWltYWUnLCAnPGluZmlsZS5tYWU+JywgJy1vbWFlJywgJzxvdXRmaWxlLm1hZT4n

> <r_lp_tautomer_probability>
1

> <r_epik_Ionization_Penalty>
  0.0005

> <r_epik_Ionization_Penalty_Charging>
  0.0000

> <r_epik_Ionization_Penalty_Neutral>
  0.0005

> <r_epik_State_Penalty>
  0.0000

> <r_epik_Charging_Adjusted_Penalty>
4.86746471452517e-05

> <i_epik_Tot_Q>
-1

> <i_epik_Tot_abs_Q>
1

> <s_epik_Chemistry_Notes>
This compound has an imine and may undergo hydrolysis. This compound contains an acetal/aminal-like group ( X-CH(R)-Y where X, Y are N, S, or O) that may be acid/base labile, releasing an aldehyde.

> <s_m_subgroup_title>
glide-dock_Nicaido_neutral_pv1

> <s_m_subgroupid>
glide-dock_Nicaido_neutral_pv1

> <b_m_subgroup_collapsed>
0

$$$$
Ceftriaxone
                    3D
 Schrodinger Suite 2022-2.
 52 55  0  0  1  0            999 V2000
  -20.5508  -22.6945  -23.6525 C   0  0  0  0  0  0
  -21.8533  -23.2372  -23.2876 N   0  0  0  0  0  0
  -22.6485  -22.6152  -22.2853 C   0  0  0  0  0  0
  -21.6860  -21.5141  -21.1630 S   0  0  0  0  0  0
  -22.5531  -21.5340  -19.5410 C   0  0  0  0  0  0
  -24.0783  -21.3814  -19.5653 C   0  0  0  0  0  0
  -24.9487  -22.3838  -19.2516 C   0  0  0  0  0  0
  -26.3427  -22.2596  -19.4405 N   0  0  0  0  0  0
  -27.0373  -20.9977  -19.6495 C   0  0  2  0  0  0
  -28.2861  -21.8252  -20.0290 C   0  0  2  0  0  0
  -27.4870  -23.0392  -19.4802 C   0  0  0  0  0  0
  -27.7072  -24.2027  -19.2138 O   0  0  0  0  0  0
  -28.5283  -21.8018  -21.4819 N   0  0  0  0  0  0
  -29.0215  -22.8009  -22.2379 C   0  0  0  0  0  0
  -29.3740  -22.4292  -23.6667 C   0  0  0  0  0  0
  -28.8718  -21.1299  -24.1795 C   0  0  0  0  0  0
  -29.6878  -20.0242  -24.1945 C   0  0  0  0  0  0
  -28.9264  -18.6707  -24.9751 S   0  0  0  0  0  0
  -27.4930  -19.6548  -25.2104 C   0  0  0  0  0  0
  -26.3694  -19.1497  -25.8359 N   0  0  0  0  0  0
  -27.6158  -20.9071  -24.7623 N   0  0  0  0  0  0
  -30.0854  -23.2253  -24.3630 N   0  0  0  0  0  0
  -30.3687  -22.7496  -25.6517 O   0  0  0  0  0  0
  -31.4909  -23.4722  -26.1298 C   0  0  0  0  0  0
  -29.2106  -23.9497  -21.8330 O   0  0  0  0  0  0
  -26.1265  -19.9958  -20.8681 S   0  0  0  0  0  0
  -24.5296  -19.9954  -20.0200 C   0  0  0  0  0  0
  -24.4536  -23.8194  -18.8407 C   0  0  0  0  0  0
  -23.7778  -23.9145  -17.7910 O   0  5  0  0  0  0
  -24.7690  -24.7495  -19.6137 O   0  0  0  0  0  0
  -23.9323  -22.7791  -22.1812 N   0  0  0  0  0  0
  -24.5878  -23.6394  -23.0469 C   0  0  0  0  0  0
  -23.7170  -24.5365  -23.9864 C   0  0  0  0  0  0
  -24.3117  -25.3999  -24.6372 O   0  0  0  0  0  0
  -22.3693  -24.3495  -24.0131 N   0  5  0  0  0  0
  -25.8124  -23.7535  -23.0781 O   0  0  0  0  0  0
  -19.8171  -22.8890  -22.8704 H   0  0  0  0  0  0
  -20.1872  -23.1518  -24.5729 H   0  0  0  0  0  0
  -20.6095  -21.6188  -23.8233 H   0  0  0  0  0  0
  -22.1475  -20.7214  -18.9385 H   0  0  0  0  0  0
  -22.2293  -22.4400  -19.0368 H   0  0  0  0  0  0
  -27.1571  -20.4566  -18.7074 H   0  0  0  0  0  0
  -29.1618  -21.5512  -19.4387 H   0  0  0  0  0  0
  -28.3624  -20.9068  -21.9213 H   0  0  0  0  0  0
  -30.6969  -19.9289  -23.8201 H   0  0  0  0  0  0
  -25.4829  -19.5773  -25.6116 H   0  0  0  0  0  0
  -26.2896  -18.1345  -25.9450 H   0  0  0  0  0  0
  -31.7408  -23.1460  -27.1391 H   0  0  0  0  0  0
  -31.2934  -24.5451  -26.1642 H   0  0  0  0  0  0
  -32.3658  -23.3009  -25.4998 H   0  0  0  0  0  0
  -24.5825  -19.3407  -19.1500 H   0  0  0  0  0  0
  -23.8008  -19.5610  -20.7039 H   0  0  0  0  0  0
  1  2  1  0  0  0
  1 37  1  0  0  0
  1 38  1  0  0  0
  1 39  1  0  0  0
  2 35  1  0  0  0
  2  3  1  0  0  0
  3  4  1  0  0  0
  3 31  2  0  0  0
  4  5  1  0  0  0
  5  6  1  0  0  0
  5 40  1  0  0  0
  5 41  1  0  0  0
  6 27  1  0  0  0
  6  7  2  0  0  0
  7  8  1  0  0  0
  7 28  1  0  0  0
  8 11  1  0  0  0
  8  9  1  0  0  0
  9 10  1  0  0  0
  9 26  1  0  0  0
  9 42  1  0  0  0
 10 11  1  0  0  0
 10 13  1  0  0  0
 10 43  1  0  0  0
 11 12  2  0  0  0
 13 14  1  0  0  0
 13 44  1  0  0  0
 14 15  1  0  0  0
 14 25  2  0  0  0
 15 16  1  0  0  0
 15 22  2  3  0  0
 16 21  1  0  0  0
 16 17  2  0  0  0
 17 18  1  0  0  0
 17 45  1  0  0  0
 18 19  1  0  0  0
 19 20  1  0  0  0
 19 21  2  0  0  0
 20 46  1  0  0  0
 20 47  1  0  0  0
 22 23  1  0  0  0
 23 24  1  0  0  0
 24 48  1  0  0  0
 24 49  1  0  0  0
 24 50  1  0  0  0
 26 27  1  0  0  0
 27 51  1  0  0  0
 27 52  1  0  0  0
 28 29  1  0  0  0
 28 30  2  0  0  0
 31 32  1  0  0  0
 32 33  1  0  0  0
 32 36  2  0  0  0
 33 34  2  0  0  0
 33 35  1  0  0  0
M  CHG  2  29  -1  35  -1
M  END
> <s_m_entry_id>
27366

> <s_m_entry_name>
data_maestro.22

> <s_m_Source_Path>
C:\Users\olshana1\Git\GramNeg-Accumulation\Gram Negative Permeation - OmpF

> <s_m_Source_File>
data_maestro.csv

> <i_m_Source_File_Index>
22

> <s_m_job_name>
glide-dock_Nicaido_neutral

> <s_i_glide_gridfile>
3POX-grid

> <i_i_glide_lignum>
28

> <i_i_glide_rotatable_bonds>
9

> <r_i_docking_score>
-5.23366762930684

> <r_i_glide_ligand_efficiency>
-0.145379656369634

> <r_i_glide_ligand_efficiency_sa>
-0.480033048228431

> <r_i_glide_ligand_efficiency_ln>
-1.14184487935589

> <r_i_glide_gscore>
-5.23366762930684

> <r_i_glide_lipo>
0

> <r_i_glide_hbond>
-0.957611930649717

> <r_i_glide_metal>
0

> <r_i_glide_rewards>
0.0367131247197212

> <r_i_glide_evdw>
-29.2293548583984

> <r_i_glide_ecoul>
-16.7539710998535

> <r_i_glide_erotb>
0.472124986767549

> <r_i_glide_esite>
-0.810330402246443

> <r_i_glide_emodel>
-78.8690352765779

> <r_i_glide_energy>
-45.983325958252

> <r_i_glide_einternal>
6.59901142120361

> <i_i_glide_confnum>
162

> <i_i_glide_posenum>
329

> <r_i_glide_eff_state_penalty>
0

> <r_glide_res:A132_vdw>
-1.751959322328

> <r_glide_res:A132_coul>
-78.683752762323

> <r_glide_res:A132_hbond>
-0.292949093633094

> <r_glide_res:A132_dist>
2.00756041098253

> <r_glide_res:A132_Eint>
-80.7286611782841

> <r_glide_res:A117_vdw>
-2.3630871235816

> <r_glide_res:A117_coul>
30.4937887968959

> <r_glide_res:A117_hbond>
-0.231509524777303

> <r_glide_res:A117_dist>
1.89571572786962

> <r_glide_res:A117_Eint>
27.899192148537

> <r_glide_res:A113_vdw>
-2.58481743368774

> <r_glide_res:A113_coul>
30.7038168284125

> <r_glide_res:A113_hbond>
0

> <r_glide_res:A113_dist>
2.49338416262063

> <r_glide_res:A113_Eint>
28.1189993947248

> <r_glide_res:A82_vdw>
-2.27471028979319

> <r_glide_res:A82_coul>
-66.9289175043081

> <r_glide_res:A82_hbond>
-0.23315331223932

> <r_glide_res:A82_dist>
2.0464821189472

> <r_glide_res:A82_Eint>
-69.4367811063406

> <r_glide_res:A42_vdw>
-2.90476396013141

> <r_glide_res:A42_coul>
-57.7010091587237

> <r_glide_res:A42_hbond>
0

> <r_glide_res:A42_dist>
1.90311453826842

> <r_glide_res:A42_Eint>
-60.6057731188551

> <r_glide_res:A16_vdw>
-1.26604349489591

> <r_glide_res:A16_coul>
-33.8358945475985

> <r_glide_res:A16_hbond>
0

> <r_glide_res:A16_dist>
2.6456007628346

> <r_glide_res:A16_Eint>
-35.1019380424945

> <s_m_source_file>
ligprep_Nicaido_neutral.maegz

> <i_m_source_file_index>
22

> <i_lp_mmshare_version>
58128

> <i_f3d_flags>
0

> <s_lp_Force_Field>
S-OPLS

> <r_lp_Energy>
109.903222

> <b_lp_Chiralities_Consistent>
1

> <s_lp_Variant>
Ceftriaxone-1

> <s_epik_input>
W09IXWMobjEpYyg9TyluYyhuMVtDSDNdKVNbQ0gyXUMoPUMyQyg9TylbT0hdKVtDSDJdU1tDQEhdKE4yMylbQ0BIXShDMz1PKVtOSF1DKD1PKS9DKD1OL09bQ0gzXSljNFtjSF1zYyhuNClbTkgyXQ==

> <s_epik_cmdline>
J2VwaWtfcHl0aG9uJywgJy1waHQnLCAnMC4wJywgJy1waCcsICc3LjQnLCAnLW50JywgJy1tYScsICc1MDAnLCAnLWltYWUnLCAnPGluZmlsZS5tYWU+JywgJy1vbWFlJywgJzxvdXRmaWxlLm1hZT4n

> <r_lp_tautomer_probability>
1

> <r_epik_Ionization_Penalty>
  0.0014

> <r_epik_Ionization_Penalty_Charging>
  0.0010

> <r_epik_Ionization_Penalty_Neutral>
  0.0004

> <r_epik_State_Penalty>
  0.0000

> <r_epik_Charging_Adjusted_Penalty>
0.000994184415634904

> <i_epik_Tot_Q>
-2

> <i_epik_Tot_abs_Q>
2

> <s_epik_Chemistry_Notes>
This compound has an imine and may undergo hydrolysis. This compound contains an acetal/aminal-like group ( X-CH(R)-Y where X, Y are N, S, or O) that may be acid/base labile, releasing an aldehyde.

> <s_m_subgroup_title>
glide-dock_Nicaido_neutral_pv1

> <s_m_subgroupid>
glide-dock_Nicaido_neutral_pv1

> <b_m_subgroup_collapsed>
0

$$$$
Cefazolin
                    3D
 Schrodinger Suite 2022-2.
 42 45  0  0  1  0            999 V2000
  -21.8565  -19.5736  -27.6136 C   0  0  0  0  0  0
  -21.8102  -20.7090  -26.6669 C   0  0  0  0  0  0
  -20.6863  -21.0880  -26.0496 N   0  0  0  0  0  0
  -20.8873  -22.1936  -25.2433 N   0  0  0  0  0  0
  -22.1627  -22.5973  -25.2571 C   0  0  0  0  0  0
  -23.2207  -21.6921  -26.3206 S   0  0  0  0  0  0
  -22.7961  -23.9497  -24.3327 S   0  0  0  0  0  0
  -21.8103  -23.7897  -22.8084 C   0  0  0  0  0  0
  -22.6750  -23.4068  -21.6155 C   0  0  0  0  0  0
  -23.0388  -24.2758  -20.6350 C   0  0  0  0  0  0
  -23.7656  -23.8690  -19.4990 N   0  0  0  0  0  0
  -23.9814  -22.4783  -19.1319 C   0  0  2  0  0  0
  -24.9430  -22.9776  -18.0324 C   0  0  2  0  0  0
  -24.4361  -24.3989  -18.4117 C   0  0  0  0  0  0
  -24.5581  -25.5332  -18.0057 O   0  0  0  0  0  0
  -26.3547  -22.6393  -18.3037 N   0  0  0  0  0  0
  -27.2539  -23.2656  -19.0853 C   0  0  0  0  0  0
  -28.5863  -22.5431  -19.3035 C   0  0  0  0  0  0
  -29.3270  -23.1213  -20.4142 N   0  0  0  0  0  0
  -30.3740  -23.9497  -20.4344 C   0  0  0  0  0  0
  -30.6607  -24.3428  -21.6694 N   0  0  0  0  0  0
  -29.7401  -23.6578  -22.4415 N   0  0  0  0  0  0
  -28.9400  -22.9398  -21.7052 N   0  0  0  0  0  0
  -27.0526  -24.3494  -19.6363 O   0  0  0  0  0  0
  -24.5110  -21.5538  -20.6069 S   0  0  0  0  0  0
  -23.0637  -21.9284  -21.6230 C   0  0  0  0  0  0
  -22.6403  -25.7936  -20.6888 C   0  0  0  0  0  0
  -23.1530  -26.4687  -21.6135 O   0  5  0  0  0  0
  -21.8309  -26.1816  -19.8161 O   0  0  0  0  0  0
  -21.1694  -18.7855  -27.3143 H   0  0  0  0  0  0
  -21.5687  -19.9494  -28.5938 H   0  0  0  0  0  0
  -22.8600  -19.1544  -27.6563 H   0  0  0  0  0  0
  -21.0243  -23.0423  -22.8956 H   0  0  0  0  0  0
  -21.2819  -24.7276  -22.6531 H   0  0  0  0  0  0
  -23.0678  -22.0471  -18.7184 H   0  0  0  0  0  0
  -24.6220  -22.6477  -17.0434 H   0  0  0  0  0  0
  -26.6651  -21.7690  -17.8933 H   0  0  0  0  0  0
  -28.4313  -21.4803  -19.4966 H   0  0  0  0  0  0
  -29.1688  -22.6358  -18.3913 H   0  0  0  0  0  0
  -30.8921  -24.2973  -19.5519 H   0  0  0  0  0  0
  -22.2155  -21.3410  -21.2690 H   0  0  0  0  0  0
  -23.2813  -21.5967  -22.6383 H   0  0  0  0  0  0
  1  2  1  0  0  0
  1 30  1  0  0  0
  1 31  1  0  0  0
  1 32  1  0  0  0
  2  6  1  0  0  0
  2  3  2  0  0  0
  3  4  1  0  0  0
  4  5  2  0  0  0
  5  6  1  0  0  0
  5  7  1  0  0  0
  7  8  1  0  0  0
  8  9  1  0  0  0
  8 33  1  0  0  0
  8 34  1  0  0  0
  9 26  1  0  0  0
  9 10  2  0  0  0
 10 11  1  0  0  0
 10 27  1  0  0  0
 11 14  1  0  0  0
 11 12  1  0  0  0
 12 13  1  0  0  0
 12 25  1  0  0  0
 12 35  1  0  0  0
 13 14  1  0  0  0
 13 16  1  0  0  0
 13 36  1  0  0  0
 14 15  2  0  0  0
 16 17  1  0  0  0
 16 37  1  0  0  0
 17 18  1  0  0  0
 17 24  2  0  0  0
 18 19  1  0  0  0
 18 38  1  0  0  0
 18 39  1  0  0  0
 19 23  1  0  0  0
 19 20  1  0  0  0
 20 21  2  0  0  0
 20 40  1  0  0  0
 21 22  1  0  0  0
 22 23  2  0  0  0
 25 26  1  0  0  0
 26 41  1  0  0  0
 26 42  1  0  0  0
 27 28  1  0  0  0
 27 29  2  0  0  0
M  CHG  1  28  -1
M  END
> <s_m_entry_id>
27367

> <s_m_entry_name>
data_maestro.2

> <s_m_Source_Path>
C:\Users\olshana1\Git\GramNeg-Accumulation\Gram Negative Permeation - OmpF

> <s_m_Source_File>
data_maestro.csv

> <i_m_Source_File_Index>
2

> <s_m_job_name>
glide-dock_Nicaido_neutral

> <s_i_glide_gridfile>
3POX-grid

> <i_i_glide_lignum>
2

> <i_i_glide_rotatable_bonds>
8

> <r_i_docking_score>
-5.21597615842221

> <r_i_glide_ligand_efficiency>
-0.179861246842145

> <r_i_glide_ligand_efficiency_sa>
-0.552590734341713

> <r_i_glide_ligand_efficiency_ln>
-1.19432627453551

> <r_i_glide_gscore>
-5.21597615842221

> <r_i_glide_lipo>
-0.416570590985003

> <r_i_glide_hbond>
-0.651528765960285

> <r_i_glide_metal>
0

> <r_i_glide_rewards>
-0.315976851773136

> <r_i_glide_evdw>
-30.8972625732422

> <r_i_glide_ecoul>
-13.8378705978394

> <r_i_glide_erotb>
0.585623573400065

> <r_i_glide_esite>
-0.79697980476584

> <r_i_glide_emodel>
-69.1896483238323

> <r_i_glide_energy>
-44.7351331710815

> <r_i_glide_einternal>
9.17901611328125

> <i_i_glide_confnum>
40

> <i_i_glide_posenum>
191

> <r_i_glide_eff_state_penalty>
0

> <r_glide_res:A132_vdw>
-2.36045639405524

> <r_glide_res:A132_coul>
-49.9835650488509

> <r_glide_res:A132_hbond>
-0.329943842454596

> <r_glide_res:A132_dist>
1.98745654609133

> <r_glide_res:A132_Eint>
-52.6739652853608

> <r_glide_res:A117_vdw>
-0.770446561560052

> <r_glide_res:A117_coul>
13.5569686155727

> <r_glide_res:A117_hbond>
0

> <r_glide_res:A117_dist>
3.72459394593113

> <r_glide_res:A117_Eint>
12.7865220540127

> <r_glide_res:A113_vdw>
-1.75584700876994

> <r_glide_res:A113_coul>
4.80784008526747

> <r_glide_res:A113_hbond>
0

> <r_glide_res:A113_dist>
2.18688526112813

> <r_glide_res:A113_Eint>
3.05199307649752

> <r_glide_res:A82_vdw>
-2.02126900257424

> <r_glide_res:A82_coul>
-35.8691423167687

> <r_glide_res:A82_hbond>
0

> <r_glide_res:A82_dist>
2.30684012332713

> <r_glide_res:A82_Eint>
-37.8904113193429

> <r_glide_res:A42_vdw>
-1.22358874606104

> <r_glide_res:A42_coul>
-23.8189012696684

> <r_glide_res:A42_hbond>
0

> <r_glide_res:A42_dist>
3.1212611937579

> <r_glide_res:A42_Eint>
-25.0424900157295

> <r_glide_res:A16_vdw>
-0.110319018428004

> <r_glide_res:A16_coul>
-14.9694609928123

> <r_glide_res:A16_hbond>
0

> <r_glide_res:A16_dist>
6.22744500616258

> <r_glide_res:A16_Eint>
-15.0797800112403

> <s_m_source_file>
ligprep_Nicaido_neutral.maegz

> <i_m_source_file_index>
2

> <i_lp_mmshare_version>
58128

> <i_f3d_flags>
0

> <s_lp_Force_Field>
S-OPLS

> <r_lp_Energy>
37.420105

> <b_lp_Chiralities_Consistent>
1

> <s_lp_Variant>
Cefazolin-1

> <s_epik_input>
W0NIM11jMW5uYyhzMSlTW0NIMl1DKD1DMkMoPU8pW09IXSlbQ0gyXVNbQ0BIXShOMjMpW0NASF0oQzM9TylbTkhdQyg9TylbQ0gyXW40W2NIXW5ubjQ=

> <s_epik_cmdline>
J2VwaWtfcHl0aG9uJywgJy1waHQnLCAnMC4wJywgJy1waCcsICc3LjQnLCAnLW50JywgJy1tYScsICc1MDAnLCAnLWltYWUnLCAnPGluZmlsZS5tYWU+JywgJy1vbWFlJywgJzxvdXRmaWxlLm1hZT4n

> <r_lp_tautomer_probability>
1

> <r_epik_Ionization_Penalty>
  0.0000

> <r_epik_Ionization_Penalty_Charging>
  0.0000

> <r_epik_Ionization_Penalty_Neutral>
  0.0000

> <r_epik_State_Penalty>
  0.0000

> <r_epik_Charging_Adjusted_Penalty>
8.33047029083912e-06

> <i_epik_Tot_Q>
-1

> <i_epik_Tot_abs_Q>
1

> <s_epik_Chemistry_Notes>
This compound contains an acetal/aminal-like group ( X-CH(R)-Y where X, Y are N, S, or O) that may be acid/base labile, releasing an aldehyde.

> <s_m_subgroup_title>
glide-dock_Nicaido_neutral_pv1

> <s_m_subgroupid>
glide-dock_Nicaido_neutral_pv1

> <b_m_subgroup_collapsed>
0

$$$$
Cephalosporin C
                    3D
 Schrodinger Suite 2022-2.
 45 46  0  0  1  0            999 V2000
  -33.5651  -20.4750  -27.8622 O   0  0  0  0  0  0
  -34.1336  -19.5392  -27.2964 C   0  0  0  0  0  0
  -34.1943  -19.3243  -25.9670 O   0  0  0  0  0  0
  -33.5682  -20.2196  -25.0551 C   0  0  0  0  0  0
  -32.0755  -19.9358  -24.9190 C   0  0  0  0  0  0
  -31.1036  -20.8379  -25.2157 C   0  0  0  0  0  0
  -29.7365  -20.4914  -25.2275 N   0  0  0  0  0  0
  -29.2417  -19.1279  -25.1686 C   0  0  2  0  0  0
  -27.8110  -19.7140  -25.1038 C   0  0  2  0  0  0
  -28.4998  -21.0998  -25.2025 C   0  0  0  0  0  0
  -28.1703  -22.2676  -25.2100 O   0  0  0  0  0  0
  -27.1415  -19.4602  -23.8309 N   0  0  0  0  0  0
  -26.0943  -20.1528  -23.3595 C   0  0  0  0  0  0
  -25.5112  -19.7100  -22.0169 C   0  0  0  0  0  0
  -25.5763  -20.8176  -20.9459 C   0  0  0  0  0  0
  -26.9962  -21.0479  -20.3883 C   0  0  0  0  0  0
  -27.0696  -22.1159  -19.2694 C   0  0  2  0  0  0
  -26.8989  -23.5476  -19.8064 C   0  0  0  0  0  0
  -26.0488  -24.2894  -19.2669 O   0  5  0  0  0  0
  -27.6468  -23.9156  -20.7399 O   0  0  0  0  0  0
  -28.3673  -22.0461  -18.5792 N   0  3  0  0  0  0
  -25.6022  -21.1147  -23.9523 O   0  0  0  0  0  0
  -30.0939  -18.2994  -23.7979 S   0  0  0  0  0  0
  -31.7783  -18.5151  -24.4388 C   0  0  0  0  0  0
  -31.4152  -22.3212  -25.6219 C   0  0  0  0  0  0
  -30.7964  -22.7474  -26.6234 O   0  5  0  0  0  0
  -32.2260  -22.9522  -24.9121 O   0  0  0  0  0  0
  -34.6677  -18.7425  -27.8145 H   0  0  0  0  0  0
  -33.7894  -21.2395  -25.3589 H   0  0  0  0  0  0
  -34.0252  -20.0963  -24.0744 H   0  0  0  0  0  0
  -29.4317  -18.6048  -26.1085 H   0  0  0  0  0  0
  -27.2113  -19.4378  -25.9717 H   0  0  0  0  0  0
  -27.4595  -18.6508  -23.3063 H   0  0  0  0  0  0
  -26.0007  -18.8017  -21.6599 H   0  0  0  0  0  0
  -24.4693  -19.4404  -22.1896 H   0  0  0  0  0  0
  -24.9152  -20.5454  -20.1222 H   0  0  0  0  0  0
  -25.1786  -21.7503  -21.3490 H   0  0  0  0  0  0
  -27.6808  -21.2982  -21.2016 H   0  0  0  0  0  0
  -27.3581  -20.0992  -19.9881 H   0  0  0  0  0  0
  -26.2952  -21.9133  -18.5314 H   0  0  0  0  0  0
  -28.3614  -22.6840  -17.7980 H   0  0  0  0  0  0
  -28.5405  -21.1055  -18.2515 H   0  0  0  0  0  0
  -31.9441  -17.8168  -25.2587 H   0  0  0  0  0  0
  -32.4718  -18.2434  -23.6426 H   0  0  0  0  0  0
  -29.1105  -22.3084  -19.2138 H   0  0  0  0  0  0
  1  2  2  0  0  0
  2  3  1  0  0  0
  2 28  1  0  0  0
  3  4  1  0  0  0
  4  5  1  0  0  0
  4 29  1  0  0  0
  4 30  1  0  0  0
  5 24  1  0  0  0
  5  6  2  0  0  0
  6  7  1  0  0  0
  6 25  1  0  0  0
  7 10  1  0  0  0
  7  8  1  0  0  0
  8  9  1  0  0  0
  8 23  1  0  0  0
  8 31  1  0  0  0
  9 10  1  0  0  0
  9 12  1  0  0  0
  9 32  1  0  0  0
 10 11  2  0  0  0
 12 13  1  0  0  0
 12 33  1  0  0  0
 13 14  1  0  0  0
 13 22  2  0  0  0
 14 15  1  0  0  0
 14 34  1  0  0  0
 14 35  1  0  0  0
 15 16  1  0  0  0
 15 36  1  0  0  0
 15 37  1  0  0  0
 16 17  1  0  0  0
 16 38  1  0  0  0
 16 39  1  0  0  0
 17 18  1  0  0  0
 17 21  1  0  0  0
 17 40  1  0  0  0
 18 19  1  0  0  0
 18 20  2  0  0  0
 21 41  1  0  0  0
 21 42  1  0  0  0
 21 45  1  0  0  0
 23 24  1  0  0  0
 24 43  1  0  0  0
 24 44  1  0  0  0
 25 26  1  0  0  0
 25 27  2  0  0  0
M  CHG  3  19  -1  21   1  26  -1
M  END
> <s_m_entry_id>
27368

> <s_m_entry_name>
data_maestro.25

> <s_m_Source_Path>
C:\Users\olshana1\Git\GramNeg-Accumulation\Gram Negative Permeation - OmpF

> <s_m_Source_File>
data_maestro.csv

> <i_m_Source_File_Index>
25

> <s_m_job_name>
glide-dock_Nicaido_neutral

> <s_i_glide_gridfile>
3POX-grid

> <i_i_glide_lignum>
32

> <i_i_glide_rotatable_bonds>
11

> <r_i_docking_score>
-5.20839589262013

> <r_i_glide_ligand_efficiency>
-0.192903551578523

> <r_i_glide_ligand_efficiency_sa>
-0.578710654099791

> <r_i_glide_ligand_efficiency_ln>
-1.2124286966848

> <r_i_glide_gscore>
-5.20839589262013

> <r_i_glide_lipo>
0

> <r_i_glide_hbond>
-1.23799878309506

> <r_i_glide_metal>
0

> <r_i_glide_rewards>
-0.679189752712661

> <r_i_glide_evdw>
-17.990026473999

> <r_i_glide_ecoul>
-18.4509506225586

> <r_i_glide_erotb>
0.97830559423054

> <r_i_glide_esite>
-0.602369033959208

> <r_i_glide_emodel>
-69.4363531066976

> <r_i_glide_energy>
-36.4409770965576

> <r_i_glide_einternal>
2.03595733642578

> <i_i_glide_confnum>
13

> <i_i_glide_posenum>
157

> <r_i_glide_eff_state_penalty>
0

> <r_glide_res:A132_vdw>
0.861569622844267

> <r_glide_res:A132_coul>
-48.2190487531911

> <r_glide_res:A132_hbond>
-0.339894641126856

> <r_glide_res:A132_dist>
1.89129579808767

> <r_glide_res:A132_Eint>
-47.6973737714737

> <r_glide_res:A117_vdw>
-4.97231958658696

> <r_glide_res:A117_coul>
13.230846162745

> <r_glide_res:A117_hbond>
-0.32

> <r_glide_res:A117_dist>
2.05077551214358

> <r_glide_res:A117_Eint>
7.938526576158

> <r_glide_res:A113_vdw>
-0.880172211118099

> <r_glide_res:A113_coul>
-3.14836415849748

> <r_glide_res:A113_hbond>
-0.00913029732543045

> <r_glide_res:A113_dist>
2.40780646115564

> <r_glide_res:A113_Eint>
-4.03766666694101

> <r_glide_res:A82_vdw>
-1.53725623094695

> <r_glide_res:A82_coul>
-45.4752965449179

> <r_glide_res:A82_hbond>
0

> <r_glide_res:A82_dist>
3.23468346595554

> <r_glide_res:A82_Eint>
-47.0125527758648

> <r_glide_res:A42_vdw>
1.83111710210524

> <r_glide_res:A42_coul>
-55.5363961715885

> <r_glide_res:A42_hbond>
-0.356899449503342

> <r_glide_res:A42_dist>
1.78552121049708

> <r_glide_res:A42_Eint>
-54.0621785189866

> <r_glide_res:A16_vdw>
-1.93362054887575

> <r_glide_res:A16_coul>
-49.0473347431064

> <r_glide_res:A16_hbond>
-0.212074395139431

> <r_glide_res:A16_dist>
2.12801536203675

> <r_glide_res:A16_Eint>
-51.1930296871216

> <s_m_source_file>
ligprep_Nicaido_neutral.maegz

> <i_m_source_file_index>
25

> <i_lp_mmshare_version>
58128

> <i_f3d_flags>
0

> <s_lp_Force_Field>
S-OPLS

> <r_lp_Energy>
27.061927

> <b_lp_Chiralities_Consistent>
1

> <s_lp_Variant>
Cephalosporin C-1

> <s_epik_input>
Tz1bQ0hdT1tDSDJdQyg9QzFDKD1PKVtPSF0pW0NIMl1TW0NASF0oTjEyKVtDQEhdKEMyPU8pW05IXUMoPU8pW0NIMl1bQ0gyXVtDSDJdW0NAQEhdKFtOSDJdKUMoPU8pW09IXQ==

> <s_epik_cmdline>
J2VwaWtfcHl0aG9uJywgJy1waHQnLCAnMC4wJywgJy1waCcsICc3LjQnLCAnLW50JywgJy1tYScsICc1MDAnLCAnLWltYWUnLCAnPGluZmlsZS5tYWU+JywgJy1vbWFlJywgJzxvdXRmaWxlLm1hZT4n

> <r_lp_tautomer_probability>
1

> <r_epik_Ionization_Penalty>
  0.0034

> <r_epik_Ionization_Penalty_Charging>
  0.0034

> <r_epik_Ionization_Penalty_Neutral>
  0.0000

> <r_epik_State_Penalty>
  0.0000

> <r_epik_Charging_Adjusted_Penalty>
0.00339038450865705

> <i_epik_Tot_Q>
-1

> <i_epik_Tot_abs_Q>
3

> <s_epik_Chemistry_Notes>
This compound has an ester and may undergo hydrolysis at high or low pH. This compound contains an acetal/aminal-like group ( X-CH(R)-Y where X, Y are N, S, or O) that may be acid/base labile, releasing an aldehyde.

> <s_m_subgroup_title>
glide-dock_Nicaido_neutral_pv1

> <s_m_subgroupid>
glide-dock_Nicaido_neutral_pv1

> <b_m_subgroup_collapsed>
0

$$$$
Imipenem
                    3D
 Schrodinger Suite 2022-2.
 37 38  0  0  1  0            999 V2000
  -21.9931  -20.6884  -25.6620 C   0  0  0  0  0  0
  -23.1775  -19.8890  -25.0976 C   0  0  2  0  0  0
  -23.9397  -20.6138  -23.9759 C   0  0  1  0  0  0
  -25.3209  -20.1127  -23.5062 C   0  0  2  0  0  0
  -25.7925  -20.0707  -22.0452 C   0  0  0  0  0  0
  -26.9117  -21.0763  -22.0444 C   0  0  0  0  0  0
  -28.0388  -21.1552  -20.6895 S   0  0  0  0  0  0
  -29.4887  -20.2692  -21.3271 C   0  0  0  0  0  0
  -29.4128  -18.7512  -21.0628 C   0  0  0  0  0  0
  -30.3674  -17.9793  -21.8801 N   0  3  0  0  0  0
  -31.6981  -18.1648  -21.9520 C   0  0  0  0  0  0
  -32.3583  -19.0661  -21.2119 N   0  0  0  0  0  0
  -26.9069  -21.8200  -23.1545 C   0  0  0  0  0  0
  -25.8777  -21.3763  -23.9797 N   0  0  0  0  0  0
  -24.6752  -21.9120  -24.4100 C   0  0  0  0  0  0
  -24.3684  -23.0142  -24.8136 O   0  0  0  0  0  0
  -27.8688  -22.9676  -23.5913 C   0  0  0  0  0  0
  -28.3518  -22.8775  -24.7458 O   0  5  0  0  0  0
  -27.9688  -23.9438  -22.8064 O   0  0  0  0  0  0
  -24.0401  -19.5486  -26.1612 O   0  0  0  0  0  0
  -21.2991  -20.9740  -24.8726 H   0  0  0  0  0  0
  -21.4382  -20.0956  -26.3900 H   0  0  0  0  0  0
  -22.3219  -21.5987  -26.1662 H   0  0  0  0  0  0
  -22.7874  -18.9494  -24.7028 H   0  0  0  0  0  0
  -23.2985  -20.7807  -23.1094 H   0  0  0  0  0  0
  -25.7184  -19.2966  -24.1132 H   0  0  0  0  0  0
  -25.0115  -20.3844  -21.3520 H   0  0  0  0  0  0
  -26.1423  -19.0802  -21.7529 H   0  0  0  0  0  0
  -29.6054  -20.4823  -22.3903 H   0  0  0  0  0  0
  -30.3485  -20.7007  -20.8166 H   0  0  0  0  0  0
  -29.5689  -18.5359  -20.0091 H   0  0  0  0  0  0
  -28.4141  -18.3859  -21.2962 H   0  0  0  0  0  0
  -32.2654  -17.5575  -22.6473 H   0  0  0  0  0  0
  -31.8649  -19.5443  -20.4560 H   0  0  0  0  0  0
  -33.3650  -19.1496  -21.2611 H   0  0  0  0  0  0
  -24.3681  -18.6609  -25.9986 H   0  0  0  0  0  0
  -29.9777  -17.1900  -22.3805 H   0  0  0  0  0  0
  1  2  1  0  0  0
  1 21  1  0  0  0
  1 22  1  0  0  0
  1 23  1  0  0  0
  2  3  1  0  0  0
  2 20  1  0  0  0
  2 24  1  0  0  0
  3 15  1  0  0  0
  3  4  1  0  0  0
  3 25  1  0  0  0
  4 14  1  0  0  0
  4  5  1  0  0  0
  4 26  1  0  0  0
  5  6  1  0  0  0
  5 27  1  0  0  0
  5 28  1  0  0  0
  6  7  1  0  0  0
  6 13  2  0  0  0
  7  8  1  0  0  0
  8  9  1  0  0  0
  8 29  1  0  0  0
  8 30  1  0  0  0
  9 10  1  0  0  0
  9 31  1  0  0  0
  9 32  1  0  0  0
 10 11  2  3  0  0
 10 37  1  0  0  0
 11 12  1  0  0  0
 11 33  1  0  0  0
 12 34  1  0  0  0
 12 35  1  0  0  0
 13 14  1  0  0  0
 13 17  1  0  0  0
 14 15  1  0  0  0
 15 16  2  0  0  0
 17 18  1  0  0  0
 17 19  2  0  0  0
 20 36  1  0  0  0
M  CHG  2  10   1  18  -1
M  END
> <s_m_entry_id>
27369

> <s_m_entry_name>
data_maestro.12

> <s_m_Source_Path>
C:\Users\olshana1\Git\GramNeg-Accumulation\Gram Negative Permeation - OmpF

> <s_m_Source_File>
data_maestro.csv

> <i_m_Source_File_Index>
12

> <s_m_job_name>
glide-dock_Nicaido_neutral

> <s_i_glide_gridfile>
3POX-grid

> <i_i_glide_lignum>
17

> <i_i_glide_rotatable_bonds>
7

> <r_i_docking_score>
-5.20332479327471

> <r_i_glide_ligand_efficiency>
-0.260166239663735

> <r_i_glide_ligand_efficiency_sa>
-0.706199823481301

> <r_i_glide_ligand_efficiency_ln>
-1.30222057861915

> <r_i_glide_gscore>
-5.20332479327471

> <r_i_glide_lipo>
0

> <r_i_glide_hbond>
-0.899678331665461

> <r_i_glide_metal>
0

> <r_i_glide_rewards>
-1.36808809090909

> <r_i_glide_evdw>
-15.129997253418

> <r_i_glide_ecoul>
-18.8618469238281

> <r_i_glide_erotb>
1.02473259195513

> <r_i_glide_esite>
-0.374514061410165

> <r_i_glide_emodel>
-59.8941577317463

> <r_i_glide_energy>
-33.9918441772461

> <r_i_glide_einternal>
8.44499588012695

> <i_i_glide_confnum>
202

> <i_i_glide_posenum>
168

> <r_i_glide_eff_state_penalty>
0

> <r_glide_res:A132_vdw>
-1.11014838222311

> <r_glide_res:A132_coul>
-18.3562286655907

> <r_glide_res:A132_hbond>
0

> <r_glide_res:A132_dist>
2.91118165702499

> <r_glide_res:A132_Eint>
-19.4663770478138

> <r_glide_res:A117_vdw>
-3.70939047683424

> <r_glide_res:A117_coul>
-10.785229479111

> <r_glide_res:A117_hbond>
-0.16

> <r_glide_res:A117_dist>
1.96652774470252

> <r_glide_res:A117_Eint>
-14.6546199559453

> <r_glide_res:A113_vdw>
-2.10057815632271

> <r_glide_res:A113_coul>
-22.6098708339779

> <r_glide_res:A113_hbond>
-0.2

> <r_glide_res:A113_dist>
2.07471102427767

> <r_glide_res:A113_Eint>
-24.9104489903006

> <r_glide_res:A82_vdw>
0.95004232598065

> <r_glide_res:A82_coul>
-34.1178468772661

> <r_glide_res:A82_hbond>
-0.227419207603627

> <r_glide_res:A82_dist>
1.74542782566043

> <r_glide_res:A82_Eint>
-33.3952237588891

> <r_glide_res:A42_vdw>
-0.656450864626447

> <r_glide_res:A42_coul>
-33.7414080013662

> <r_glide_res:A42_hbond>
-0.312259124061834

> <r_glide_res:A42_dist>
2.06404281321438

> <r_glide_res:A42_Eint>
-34.7101179900545

> <r_glide_res:A16_vdw>
-0.245296677345512

> <r_glide_res:A16_coul>
-8.08072061427795

> <r_glide_res:A16_hbond>
0

> <r_glide_res:A16_dist>
4.25392642951109

> <r_glide_res:A16_Eint>
-8.32601729162346

> <s_m_source_file>
ligprep_Nicaido_neutral.maegz

> <i_m_source_file_index>
12

> <i_lp_mmshare_version>
58128

> <i_f3d_flags>
0

> <s_lp_Force_Field>
S-OPLS

> <r_lp_Energy>
22.988374

> <b_lp_Chiralities_Consistent>
1

> <s_lp_Variant>
Imipenem-2

> <s_epik_input>
W0NIM11bQ0BASF0oW09IXSlbQ0BASF0xQyg9TylOKFtDQEhdMTIpQyhDKD1PKVtPSF0pPUMoW0NIMl0yKVNbQ0gyXVtDSDJdL049W0NIXS9bTkgyXQ==

> <s_epik_cmdline>
J2VwaWtfcHl0aG9uJywgJy1waHQnLCAnMC4wJywgJy1waCcsICc3LjQnLCAnLW50JywgJy1tYScsICc1MDAnLCAnLWltYWUnLCAnPGluZmlsZS5tYWU+JywgJy1vbWFlJywgJzxvdXRmaWxlLm1hZT4n

> <r_lp_tautomer_probability>
1

> <r_epik_Ionization_Penalty>
  0.0001

> <r_epik_Ionization_Penalty_Charging>
  0.0001

> <r_epik_Ionization_Penalty_Neutral>
  0.0000

> <r_epik_State_Penalty>
  0.0000

> <r_epik_Charging_Adjusted_Penalty>
9.5675940864495e-05

> <i_epik_Tot_Q>
0

> <i_epik_Tot_abs_Q>
2

> <s_epik_Chemistry_Notes>
This compound has an imine and may undergo hydrolysis.

> <s_m_subgroup_title>
glide-dock_Nicaido_neutral_pv1

> <s_m_subgroupid>
glide-dock_Nicaido_neutral_pv1

> <b_m_subgroup_collapsed>
0

$$$$
Cefacetrile
                    3D
 Schrodinger Suite 2022-2.
 35 36  0  0  1  0            999 V2000
  -30.3969  -17.9497  -25.9497 C   0  0  0  0  0  0
  -30.4429  -19.3325  -25.3186 C   0  0  0  0  0  0
  -30.5711  -19.2792  -23.9810 O   0  0  0  0  0  0
  -30.5488  -20.4629  -23.1935 C   0  0  0  0  0  0
  -29.1679  -20.6908  -22.5889 C   0  0  0  0  0  0
  -28.3715  -21.7433  -22.9056 C   0  0  0  0  0  0
  -27.0873  -21.9109  -22.3599 N   0  0  0  0  0  0
  -26.3597  -20.8517  -21.6853 C   0  0  2  0  0  0
  -25.2707  -21.8966  -21.3609 C   0  0  2  0  0  0
  -26.0744  -22.8440  -22.2894 C   0  0  0  0  0  0
  -25.9441  -23.9494  -22.7728 O   0  0  0  0  0  0
  -25.2514  -22.2750  -19.9444 N   0  0  0  0  0  0
  -24.7328  -23.4114  -19.4524 C   0  0  0  0  0  0
  -24.6328  -23.5321  -17.9338 C   0  0  0  0  0  0
  -23.5369  -24.4288  -17.5280 C   0  0  0  0  0  0
  -22.6745  -25.1390  -17.2134 N   0  0  0  0  0  0
  -24.3385  -24.3348  -20.1664 O   0  0  0  0  0  0
  -27.4549  -20.1095  -20.4426 S   0  0  0  0  0  0
  -28.7628  -19.6051  -21.5943 C   0  0  0  0  0  0
  -28.8552  -22.9082  -23.8164 C   0  0  0  0  0  0
  -28.7685  -22.7494  -25.0560 O   0  5  0  0  0  0
  -29.1918  -23.9495  -23.2129 O   0  0  0  0  0  0
  -30.3797  -20.3487  -26.0132 O   0  0  0  0  0  0
  -31.3225  -17.4085  -25.7512 H   0  0  0  0  0  0
  -29.5687  -17.3731  -25.5366 H   0  0  0  0  0  0
  -30.2591  -18.0197  -27.0286 H   0  0  0  0  0  0
  -30.8981  -21.3227  -23.7649 H   0  0  0  0  0  0
  -31.2596  -20.3412  -22.3760 H   0  0  0  0  0  0
  -26.0224  -20.1000  -22.4023 H   0  0  0  0  0  0
  -24.2937  -21.6005  -21.7440 H   0  0  0  0  0  0
  -25.6202  -21.5881  -19.2994 H   0  0  0  0  0  0
  -25.5691  -23.9267  -17.5401 H   0  0  0  0  0  0
  -24.4641  -22.5556  -17.4784 H   0  0  0  0  0  0
  -28.4169  -18.7495  -22.1657 H   0  0  0  0  0  0
  -29.6248  -19.2852  -21.0069 H   0  0  0  0  0  0
  1  2  1  0  0  0
  1 24  1  0  0  0
  1 25  1  0  0  0
  1 26  1  0  0  0
  2  3  1  0  0  0
  2 23  2  0  0  0
  3  4  1  0  0  0
  4  5  1  0  0  0
  4 27  1  0  0  0
  4 28  1  0  0  0
  5 19  1  0  0  0
  5  6  2  0  0  0
  6  7  1  0  0  0
  6 20  1  0  0  0
  7 10  1  0  0  0
  7  8  1  0  0  0
  8  9  1  0  0  0
  8 18  1  0  0  0
  8 29  1  0  0  0
  9 10  1  0  0  0
  9 12  1  0  0  0
  9 30  1  0  0  0
 10 11  2  0  0  0
 12 13  1  0  0  0
 12 31  1  0  0  0
 13 14  1  0  0  0
 13 17  2  0  0  0
 14 15  1  0  0  0
 14 32  1  0  0  0
 14 33  1  0  0  0
 15 16  3  0  0  0
 18 19  1  0  0  0
 19 34  1  0  0  0
 19 35  1  0  0  0
 20 21  1  0  0  0
 20 22  2  0  0  0
M  CHG  1  21  -1
M  END
> <s_m_entry_id>
27370

> <s_m_entry_name>
data_maestro.1

> <s_m_Source_Path>
C:\Users\olshana1\Git\GramNeg-Accumulation\Gram Negative Permeation - OmpF

> <s_m_Source_File>
data_maestro.csv

> <i_m_Source_File_Index>
1

> <s_m_job_name>
glide-dock_Nicaido_neutral

> <s_i_glide_gridfile>
3POX-grid

> <i_i_glide_lignum>
1

> <i_i_glide_rotatable_bonds>
7

> <r_i_docking_score>
-5.20022765192567

> <r_i_glide_ligand_efficiency>
-0.226096854431551

> <r_i_glide_ligand_efficiency_sa>
-0.642989377894164

> <r_i_glide_ligand_efficiency_ln>
-1.25746219929298

> <r_i_glide_gscore>
-5.20022765192567

> <r_i_glide_lipo>
0

> <r_i_glide_hbond>
-1.06286560712581

> <r_i_glide_metal>
0

> <r_i_glide_rewards>
-1.10026547534319

> <r_i_glide_evdw>
-19.0193920135498

> <r_i_glide_ecoul>
-15.3121919631958

> <r_i_glide_erotb>
0.660867222788296

> <r_i_glide_esite>
-0.450165397088107

> <r_i_glide_emodel>
-59.0023527445369

> <r_i_glide_energy>
-34.3315839767456

> <r_i_glide_einternal>
3.34281420707703

> <i_i_glide_confnum>
15

> <i_i_glide_posenum>
111

> <r_i_glide_eff_state_penalty>
0

> <r_glide_res:A132_vdw>
-2.0678339886921

> <r_glide_res:A132_coul>
-37.0651784129669

> <r_glide_res:A132_hbond>
-0.0671286384391067

> <r_glide_res:A132_dist>
2.25538272364709

> <r_glide_res:A132_Eint>
-39.2001410400981

> <r_glide_res:A117_vdw>
-2.8557797862671

> <r_glide_res:A117_coul>
17.99204179393

> <r_glide_res:A117_hbond>
0

> <r_glide_res:A117_dist>
2.16444328748768

> <r_glide_res:A117_Eint>
15.1362620076629

> <r_glide_res:A113_vdw>
-1.9202796607356

> <r_glide_res:A113_coul>
21.5484609620408

> <r_glide_res:A113_hbond>
0

> <r_glide_res:A113_dist>
2.73265567739774

> <r_glide_res:A113_Eint>
19.6281813013052

> <r_glide_res:A82_vdw>
1.85465806405317

> <r_glide_res:A82_coul>
-54.134976793695

> <r_glide_res:A82_hbond>
-0.308038270474301

> <r_glide_res:A82_dist>
1.77645417216279

> <r_glide_res:A82_Eint>
-52.5883570001161

> <r_glide_res:A42_vdw>
0.191186204643289

> <r_glide_res:A42_coul>
-49.9528746348799

> <r_glide_res:A42_hbond>
-0.294711973978486

> <r_glide_res:A42_dist>
1.80595588585758

> <r_glide_res:A42_Eint>
-50.0564004042151

> <r_glide_res:A16_vdw>
-0.783731319573258

> <r_glide_res:A16_coul>
-33.8226040759646

> <r_glide_res:A16_hbond>
-0.0729867242339205

> <r_glide_res:A16_dist>
2.25914030519053

> <r_glide_res:A16_Eint>
-34.6793221197718

> <s_m_source_file>
ligprep_Nicaido_neutral.maegz

> <i_m_source_file_index>
1

> <i_lp_mmshare_version>
58128

> <i_f3d_flags>
0

> <s_lp_Force_Field>
S-OPLS

> <r_lp_Energy>
24.277434

> <b_lp_Chiralities_Consistent>
1

> <s_lp_Variant>
Cefacetrile-1

> <s_epik_input>
W0NIM11DKD1PKU9bQ0gyXUMoPUMxQyg9TylbT0hdKVtDSDJdU1tDQEhdKE4xMilbQ0BIXShDMj1PKVtOSF1DKD1PKVtDSDJdQyNO

> <s_epik_cmdline>
J2VwaWtfcHl0aG9uJywgJy1waHQnLCAnMC4wJywgJy1waCcsICc3LjQnLCAnLW50JywgJy1tYScsICc1MDAnLCAnLWltYWUnLCAnPGluZmlsZS5tYWU+JywgJy1vbWFlJywgJzxvdXRmaWxlLm1hZT4n

> <r_lp_tautomer_probability>
1

> <r_epik_Ionization_Penalty>
  0.0000

> <r_epik_Ionization_Penalty_Charging>
  0.0000

> <r_epik_Ionization_Penalty_Neutral>
  0.0000

> <r_epik_State_Penalty>
  0.0000

> <r_epik_Charging_Adjusted_Penalty>
5.96156609429709e-06

> <i_epik_Tot_Q>
-1

> <i_epik_Tot_abs_Q>
1

> <s_epik_Chemistry_Notes>
This compound has an ester and may undergo hydrolysis at high or low pH. This compound contains an acetal/aminal-like group ( X-CH(R)-Y where X, Y are N, S, or O) that may be acid/base labile, releasing an aldehyde.

> <s_m_subgroup_title>
glide-dock_Nicaido_neutral_pv1

> <s_m_subgroupid>
glide-dock_Nicaido_neutral_pv1

> <b_m_subgroup_collapsed>
0

$$$$
Nocardicin B
                    3D
 Schrodinger Suite 2022-2.
 59 61  0  0  1  0            999 V2000
  -27.5687  -21.9389  -25.0298 O   0  0  0  0  0  0
  -27.3745  -21.3052  -24.0122 C   0  0  0  0  0  0
  -28.1844  -20.3342  -23.1425 C   0  0  2  0  0  0
  -27.0349  -20.4636  -22.1424 C   0  0  0  0  0  0
  -26.2931  -21.2245  -23.1597 N   0  0  0  0  0  0
  -24.9740  -21.8626  -23.1221 C   0  0  2  0  0  0
  -24.0704  -21.4162  -24.2663 C   0  0  0  0  0  0
  -22.8200  -22.0464  -24.5067 C   0  0  0  0  0  0
  -21.9880  -21.6874  -25.5851 C   0  0  0  0  0  0
  -22.3585  -20.6365  -26.4380 C   0  0  0  0  0  0
  -23.5482  -19.9363  -26.1847 C   0  0  0  0  0  0
  -24.3831  -20.3235  -25.1189 C   0  0  0  0  0  0
  -21.5608  -20.2982  -27.4923 O   0  0  0  0  0  0
  -25.1564  -23.4015  -23.1475 C   0  0  0  0  0  0
  -25.5720  -23.9502  -22.0998 O   0  5  0  0  0  0
  -24.9299  -24.0256  -24.2072 O   0  0  0  0  0  0
  -29.4758  -20.8312  -22.6517 N   0  0  0  0  0  0
  -29.9195  -22.0837  -22.4292 C   0  0  0  0  0  0
  -31.4283  -22.1568  -22.1583 C   0  0  0  0  0  0
  -32.0410  -23.4299  -22.6433 C   0  0  0  0  0  0
  -32.9490  -24.1542  -21.8362 C   0  0  0  0  0  0
  -33.5645  -25.3310  -22.3136 C   0  0  0  0  0  0
  -33.2744  -25.8162  -23.6129 C   0  0  0  0  0  0
  -32.3740  -25.0962  -24.4183 C   0  0  0  0  0  0
  -31.7772  -23.9126  -23.9482 C   0  0  0  0  0  0
  -33.8091  -26.9638  -24.1536 O   0  0  0  0  0  0
  -34.9759  -27.5096  -23.5517 C   0  0  0  0  0  0
  -35.5852  -28.5463  -24.5104 C   0  0  0  0  0  0
  -35.9518  -27.9417  -25.8904 C   0  0  2  0  0  0
  -36.9892  -28.7444  -26.6816 C   0  0  0  0  0  0
  -37.5685  -28.1430  -27.6110 O   0  5  0  0  0  0
  -37.1697  -29.9496  -26.4099 O   0  0  0  0  0  0
  -34.7689  -27.8186  -26.7528 N   0  3  0  0  0  0
  -32.1919  -21.2883  -21.6040 N   0  0  0  0  0  0
  -31.4998  -20.0940  -21.2133 O   0  0  0  0  0  0
  -29.2268  -23.1034  -22.5166 O   0  0  0  0  0  0
  -28.2459  -19.3254  -23.5537 H   0  0  0  0  0  0
  -26.5806  -19.5053  -21.8807 H   0  0  0  0  0  0
  -27.2733  -21.0444  -21.2483 H   0  0  0  0  0  0
  -24.5057  -21.5993  -22.1733 H   0  0  0  0  0  0
  -22.5026  -22.8552  -23.8665 H   0  0  0  0  0  0
  -21.0639  -22.2184  -25.7582 H   0  0  0  0  0  0
  -23.8361  -19.0968  -26.8007 H   0  0  0  0  0  0
  -25.2768  -19.7390  -24.9644 H   0  0  0  0  0  0
  -21.8697  -19.5452  -27.9736 H   0  0  0  0  0  0
  -30.1685  -20.1191  -22.4449 H   0  0  0  0  0  0
  -33.1810  -23.8075  -20.8380 H   0  0  0  0  0  0
  -34.2420  -25.8548  -21.6560 H   0  0  0  0  0  0
  -32.1498  -25.4463  -25.4149 H   0  0  0  0  0  0
  -31.1120  -23.3717  -24.6049 H   0  0  0  0  0  0
  -35.7098  -26.7272  -23.3490 H   0  0  0  0  0  0
  -34.7192  -27.9825  -22.6027 H   0  0  0  0  0  0
  -36.4768  -28.9522  -24.0299 H   0  0  0  0  0  0
  -34.9011  -29.3881  -24.6339 H   0  0  0  0  0  0
  -36.3669  -26.9438  -25.7401 H   0  0  0  0  0  0
  -35.0711  -27.5319  -27.6727 H   0  0  0  0  0  0
  -34.1409  -27.1323  -26.3611 H   0  0  0  0  0  0
  -31.4340  -20.1695  -20.2529 H   0  0  0  0  0  0
  -34.2741  -28.7015  -26.8176 H   0  0  0  0  0  0
  1  2  2  0  0  0
  2  5  1  0  0  0
  2  3  1  0  0  0
  3  4  1  0  0  0
  3 17  1  0  0  0
  3 37  1  0  0  0
  4  5  1  0  0  0
  4 38  1  0  0  0
  4 39  1  0  0  0
  5  6  1  0  0  0
  6  7  1  0  0  0
  6 14  1  0  0  0
  6 40  1  0  0  0
  7 12  1  0  0  0
  7  8  2  0  0  0
  8  9  1  0  0  0
  8 41  1  0  0  0
  9 10  2  0  0  0
  9 42  1  0  0  0
 10 11  1  0  0  0
 10 13  1  0  0  0
 11 12  2  0  0  0
 11 43  1  0  0  0
 12 44  1  0  0  0
 13 45  1  0  0  0
 14 15  1  0  0  0
 14 16  2  0  0  0
 17 18  1  0  0  0
 17 46  1  0  0  0
 18 19  1  0  0  0
 18 36  2  0  0  0
 19 20  1  0  0  0
 19 34  2  3  0  0
 20 25  1  0  0  0
 20 21  2  0  0  0
 21 22  1  0  0  0
 21 47  1  0  0  0
 22 23  2  0  0  0
 22 48  1  0  0  0
 23 24  1  0  0  0
 23 26  1  0  0  0
 24 25  2  0  0  0
 24 49  1  0  0  0
 25 50  1  0  0  0
 26 27  1  0  0  0
 27 28  1  0  0  0
 27 51  1  0  0  0
 27 52  1  0  0  0
 28 29  1  0  0  0
 28 53  1  0  0  0
 28 54  1  0  0  0
 29 30  1  0  0  0
 29 33  1  0  0  0
 29 55  1  0  0  0
 30 31  1  0  0  0
 30 32  2  0  0  0
 33 56  1  0  0  0
 33 57  1  0  0  0
 33 59  1  0  0  0
 34 35  1  0  0  0
 35 58  1  0  0  0
M  CHG  3  15  -1  31  -1  33   1
M  END
> <s_m_entry_id>
27371

> <s_m_entry_name>
data_maestro.29

> <s_m_Source_Path>
C:\Users\olshana1\Git\GramNeg-Accumulation\Gram Negative Permeation - OmpF

> <s_m_Source_File>
data_maestro.csv

> <i_m_Source_File_Index>
29

> <s_m_job_name>
glide-dock_Nicaido_neutral

> <s_i_glide_gridfile>
3POX-grid

> <i_i_glide_lignum>
37

> <i_i_glide_rotatable_bonds>
14

> <r_i_docking_score>
-5.1991471824627

> <r_i_glide_ligand_efficiency>
-0.144420755068408

> <r_i_glide_ligand_efficiency_sa>
-0.476866825896693

> <r_i_glide_ligand_efficiency_ln>
-1.13431345048919

> <r_i_glide_gscore>
-5.1991471824627

> <r_i_glide_lipo>
-0.138298275187093

> <r_i_glide_hbond>
-0.96938430024407

> <r_i_glide_metal>
0

> <r_i_glide_rewards>
0.0138444821685884

> <r_i_glide_evdw>
-26.7518539428711

> <r_i_glide_ecoul>
-19.735013961792

> <r_i_glide_erotb>
0.900147327125679

> <r_i_glide_esite>
-0.707611624913446

> <r_i_glide_emodel>
-67.4931201279928

> <r_i_glide_energy>
-46.4868679046631

> <r_i_glide_einternal>
20.3818645477295

> <i_i_glide_confnum>
110

> <i_i_glide_posenum>
367

> <r_i_glide_eff_state_penalty>
0

> <r_glide_res:A132_vdw>
-1.30465169888752

> <r_glide_res:A132_coul>
-38.9425960447784

> <r_glide_res:A132_hbond>
-0.113824161593167

> <r_glide_res:A132_dist>
2.16868048433078

> <r_glide_res:A132_Eint>
-40.3610719052591

> <r_glide_res:A117_vdw>
-2.96231717928673

> <r_glide_res:A117_coul>
14.8281835223363

> <r_glide_res:A117_hbond>
0

> <r_glide_res:A117_dist>
2.80988069885205

> <r_glide_res:A117_Eint>
11.8658663430496

> <r_glide_res:A113_vdw>
-1.91901486315826

> <r_glide_res:A113_coul>
7.2985444726247

> <r_glide_res:A113_hbond>
-0.16

> <r_glide_res:A113_dist>
1.71207673057021

> <r_glide_res:A113_Eint>
5.21952960946645

> <r_glide_res:A82_vdw>
-2.38645061979286

> <r_glide_res:A82_coul>
-41.9099077841161

> <r_glide_res:A82_hbond>
0

> <r_glide_res:A82_dist>
2.57609622125252

> <r_glide_res:A82_Eint>
-44.296358403909

> <r_glide_res:A42_vdw>
-0.578457024776689

> <r_glide_res:A42_coul>
-39.1183630172718

> <r_glide_res:A42_hbond>
-0.16

> <r_glide_res:A42_dist>
1.7100259178992

> <r_glide_res:A42_Eint>
-39.8568200420484

> <r_glide_res:A16_vdw>
-0.471322115497165

> <r_glide_res:A16_coul>
-16.3522777672365

> <r_glide_res:A16_hbond>
0

> <r_glide_res:A16_dist>
4.19191623974303

> <r_glide_res:A16_Eint>
-16.8235998827337

> <s_m_source_file>
ligprep_Nicaido_neutral.maegz

> <i_m_source_file_index>
29

> <i_lp_mmshare_version>
58128

> <i_f3d_flags>
0

> <s_lp_Force_Field>
S-OPLS

> <r_lp_Energy>
65.715273

> <b_lp_Chiralities_Consistent>
1

> <s_lp_Variant>
Nocardicin B-2

> <s_epik_input>
W2NIXTFbY0hdYyhbT0hdKVtjSF1bY0hdYzFbQ0BIXShDKD1PKVtPSF0pTjJbQ0gyXVtDQEBIXShDMj1PKVtOSF1DKD1PKS9DKD1OL1tPSF0pYzNbY0hdW2NIXWMoW2NIXVtjSF0zKU9bQ0gyXVtDSDJdW0NAQEhdKFtOSDJdKUMoPU8pW09IXQ==

> <s_epik_cmdline>
J2VwaWtfcHl0aG9uJywgJy1waHQnLCAnMC4wJywgJy1waCcsICc3LjQnLCAnLW50JywgJy1tYScsICc1MDAnLCAnLWltYWUnLCAnPGluZmlsZS5tYWU+JywgJy1vbWFlJywgJzxvdXRmaWxlLm1hZT4n

> <r_lp_tautomer_probability>
1

> <r_epik_Ionization_Penalty>
  0.0116

> <r_epik_Ionization_Penalty_Charging>
  0.0086

> <r_epik_Ionization_Penalty_Neutral>
  0.0030

> <r_epik_State_Penalty>
  0.0000

> <r_epik_Charging_Adjusted_Penalty>
0.0085560600321308

> <i_epik_Tot_Q>
-1

> <i_epik_Tot_abs_Q>
3

> <s_epik_Chemistry_Notes>
This compound has an imine and may undergo hydrolysis.

> <s_m_subgroup_title>
glide-dock_Nicaido_neutral_pv1

> <s_m_subgroupid>
glide-dock_Nicaido_neutral_pv1

> <b_m_subgroup_collapsed>
0

$$$$
Cefuroxime
                    3D
 Schrodinger Suite 2022-2.
 44 46  0  0  1  0            999 V2000
  -24.6156  -22.5159  -16.8968 C   0  0  0  0  0  0
  -25.4200  -23.4358  -17.6134 O   0  0  0  0  0  0
  -25.9971  -22.7562  -18.6912 N   0  0  0  0  0  0
  -27.1644  -23.1743  -18.9832 C   0  0  0  0  0  0
  -27.8768  -24.2710  -18.3132 C   0  0  0  0  0  0
  -29.1029  -24.4452  -17.7241 C   0  0  0  0  0  0
  -29.1612  -25.7910  -17.2652 C   0  0  0  0  0  0
  -27.9690  -26.3527  -17.6134 C   0  0  0  0  0  0
  -27.1870  -25.4519  -18.2703 O   0  0  0  0  0  0
  -27.8527  -22.6209  -20.2015 C   0  0  0  0  0  0
  -29.1689  -22.3662  -20.0500 N   0  0  0  0  0  0
  -30.1418  -21.9411  -21.0705 C   0  0  1  0  0  0
  -29.7741  -20.6261  -21.7861 C   0  0  1  0  0  0
  -29.9150  -21.3513  -23.0353 N   0  0  0  0  0  0
  -29.9704  -22.6124  -22.4551 C   0  0  0  0  0  0
  -29.8445  -23.7425  -22.8846 O   0  0  0  0  0  0
  -29.6636  -20.7226  -24.2680 C   0  0  0  0  0  0
  -29.2267  -21.6749  -25.4099 C   0  0  0  0  0  0
  -29.9689  -21.7353  -26.4134 O   0  5  0  0  0  0
  -28.1916  -22.3496  -25.2134 O   0  0  0  0  0  0
  -29.7021  -19.3720  -24.4269 C   0  0  0  0  0  0
  -30.0819  -18.4079  -23.3007 C   0  0  0  0  0  0
  -30.8946  -19.2011  -21.8924 S   0  0  0  0  0  0
  -29.2685  -18.6699  -25.7165 C   0  0  0  0  0  0
  -30.1654  -17.6496  -26.1273 O   0  0  0  0  0  0
  -31.3085  -17.9315  -26.7616 C   0  0  0  0  0  0
  -31.9689  -16.7496  -26.9819 N   0  0  0  0  0  0
  -31.6998  -19.0473  -27.0965 O   0  0  0  0  0  0
  -27.2239  -22.4698  -21.2502 O   0  0  0  0  0  0
  -24.1619  -23.0175  -16.0422 H   0  0  0  0  0  0
  -23.8148  -22.1146  -17.5197 H   0  0  0  0  0  0
  -25.2111  -21.6855  -16.5125 H   0  0  0  0  0  0
  -29.8650  -23.6888  -17.6133 H   0  0  0  0  0  0
  -29.9688  -26.2785  -16.7388 H   0  0  0  0  0  0
  -27.5281  -27.3278  -17.4814 H   0  0  0  0  0  0
  -29.5656  -22.4079  -19.1161 H   0  0  0  0  0  0
  -31.1688  -21.9310  -20.7042 H   0  0  0  0  0  0
  -28.7430  -20.2999  -21.6342 H   0  0  0  0  0  0
  -29.1690  -17.9408  -22.9418 H   0  0  0  0  0  0
  -30.7360  -17.6133  -23.6594 H   0  0  0  0  0  0
  -28.3062  -18.1948  -25.5231 H   0  0  0  0  0  0
  -29.1034  -19.3603  -26.5416 H   0  0  0  0  0  0
  -31.5092  -15.9044  -26.6463 H   0  0  0  0  0  0
  -32.8693  -16.7691  -27.4321 H   0  0  0  0  0  0
  1  2  1  0  0  0
  1 30  1  0  0  0
  1 31  1  0  0  0
  1 32  1  0  0  0
  2  3  1  0  0  0
  3  4  2  3  0  0
  4  5  1  0  0  0
  4 10  1  0  0  0
  5  9  1  0  0  0
  5  6  2  0  0  0
  6  7  1  0  0  0
  6 33  1  0  0  0
  7  8  2  0  0  0
  7 34  1  0  0  0
  8  9  1  0  0  0
  8 35  1  0  0  0
 10 11  1  0  0  0
 10 29  2  0  0  0
 11 12  1  0  0  0
 11 36  1  0  0  0
 12 15  1  0  0  0
 12 13  1  0  0  0
 12 37  1  0  0  0
 13 23  1  0  0  0
 13 14  1  0  0  0
 13 38  1  0  0  0
 14 15  1  0  0  0
 14 17  1  0  0  0
 15 16  2  0  0  0
 17 18  1  0  0  0
 17 21  2  0  0  0
 18 19  1  0  0  0
 18 20  2  0  0  0
 21 22  1  0  0  0
 21 24  1  0  0  0
 22 23  1  0  0  0
 22 39  1  0  0  0
 22 40  1  0  0  0
 24 25  1  0  0  0
 24 41  1  0  0  0
 24 42  1  0  0  0
 25 26  1  0  0  0
 26 27  1  0  0  0
 26 28  2  0  0  0
 27 43  1  0  0  0
 27 44  1  0  0  0
M  CHG  1  19  -1
M  END
> <s_m_entry_id>
27372

> <s_m_entry_name>
data_maestro.10

> <s_m_Source_Path>
C:\Users\olshana1\Git\GramNeg-Accumulation\Gram Negative Permeation - OmpF

> <s_m_Source_File>
data_maestro.csv

> <i_m_Source_File_Index>
10

> <s_m_job_name>
glide-dock_Nicaido_neutral

> <s_i_glide_gridfile>
3POX-grid

> <i_i_glide_lignum>
13

> <i_i_glide_rotatable_bonds>
9

> <r_i_docking_score>
-5.19066482026835

> <r_i_glide_ligand_efficiency>
-0.178988442078219

> <r_i_glide_ligand_efficiency_sa>
-0.549909201582973

> <r_i_glide_ligand_efficiency_ln>
-1.18853061993843

> <r_i_glide_gscore>
-5.19066482026835

> <r_i_glide_lipo>
-0.035999079300561

> <r_i_glide_hbond>
-1.23307034626892

> <r_i_glide_metal>
0

> <r_i_glide_rewards>
-0.243915565837715

> <r_i_glide_evdw>
-30.5554504394531

> <r_i_glide_ecoul>
-13.6525592803955

> <r_i_glide_erotb>
0.663396273735242

> <r_i_glide_esite>
-0.765419688564412

> <r_i_glide_emodel>
-66.7724012480735

> <r_i_glide_energy>
-44.2080097198486

> <r_i_glide_einternal>
10.2064905166626

> <i_i_glide_confnum>
35

> <i_i_glide_posenum>
286

> <r_i_glide_eff_state_penalty>
0

> <r_glide_res:A132_vdw>
-3.33276134838877

> <r_glide_res:A132_coul>
-25.3142256765783

> <r_glide_res:A132_hbond>
-0.00174037042654054

> <r_glide_res:A132_dist>
1.91328938930391

> <r_glide_res:A132_Eint>
-28.6487273953936

> <r_glide_res:A117_vdw>
-3.91559839901795

> <r_glide_res:A117_coul>
23.3133875889956

> <r_glide_res:A117_hbond>
0

> <r_glide_res:A117_dist>
2.27792306587346

> <r_glide_res:A117_Eint>
19.3977891899777

> <r_glide_res:A113_vdw>
-2.70802322779446

> <r_glide_res:A113_coul>
7.65704633682688

> <r_glide_res:A113_hbond>
-0.124500937569231

> <r_glide_res:A113_dist>
1.98307388600314

> <r_glide_res:A113_Eint>
4.8245221714632

> <r_glide_res:A82_vdw>
-1.58572661329066

> <r_glide_res:A82_coul>
-40.7184025722327

> <r_glide_res:A82_hbond>
-0.153511852782025

> <r_glide_res:A82_dist>
2.0681775239422

> <r_glide_res:A82_Eint>
-42.4576410383054

> <r_glide_res:A42_vdw>
1.85426453450021

> <r_glide_res:A42_coul>
-56.431830105061

> <r_glide_res:A42_hbond>
-0.446293479927071

> <r_glide_res:A42_dist>
1.76748662213637

> <r_glide_res:A42_Eint>
-55.0238590504879

> <r_glide_res:A16_vdw>
0.162434958767099

> <r_glide_res:A16_coul>
-55.672605771371

> <r_glide_res:A16_hbond>
-0.2

> <r_glide_res:A16_dist>
1.82915497197682

> <r_glide_res:A16_Eint>
-55.7101708126039

> <s_m_source_file>
ligprep_Nicaido_neutral.maegz

> <i_m_source_file_index>
10

> <i_lp_mmshare_version>
58128

> <i_f3d_flags>
0

> <s_lp_Force_Field>
S-OPLS

> <r_lp_Energy>
41.721283

> <b_lp_Chiralities_Consistent>
1

> <s_lp_Variant>
Cefuroxime-1

> <s_epik_input>
bzFbY0hdW2NIXVtjSF1jMS9DKD1OXE9bQ0gzXSlDKD1PKVtOSF1bQ0BASF0yQyg9TylOKFtDQEhdMjMpQyhDKD1PKVtPSF0pPUMoW0NIMl1TMylbQ0gyXU9DKD1PKVtOSDJd

> <s_epik_cmdline>
J2VwaWtfcHl0aG9uJywgJy1waHQnLCAnMC4wJywgJy1waCcsICc3LjQnLCAnLW50JywgJy1tYScsICc1MDAnLCAnLWltYWUnLCAnPGluZmlsZS5tYWU+JywgJy1vbWFlJywgJzxvdXRmaWxlLm1hZT4n

> <r_lp_tautomer_probability>
1

> <r_epik_Ionization_Penalty>
  0.0000

> <r_epik_Ionization_Penalty_Charging>
  0.0000

> <r_epik_Ionization_Penalty_Neutral>
  0.0000

> <r_epik_State_Penalty>
  0.0000

> <r_epik_Charging_Adjusted_Penalty>
8.57368987839538e-06

> <i_epik_Tot_Q>
-1

> <i_epik_Tot_abs_Q>
1

> <s_epik_Chemistry_Notes>
This compound has an ester and may undergo hydrolysis at high or low pH. This compound has an imine and may undergo hydrolysis. This compound contains an acetal/aminal-like group ( X-CH(R)-Y where X, Y are N, S, or O) that may be acid/base labile, releasing an aldehyde.

> <s_m_subgroup_title>
glide-dock_Nicaido_neutral_pv1

> <s_m_subgroupid>
glide-dock_Nicaido_neutral_pv1

> <b_m_subgroup_collapsed>
0

$$$$
Aztreonam
                    3D
 Schrodinger Suite 2022-2.
 43 44  0  0  1  0            999 V2000
  -30.8630  -23.5570  -23.3832 C   0  0  0  0  0  0
  -31.1908  -22.1044  -23.7565 C   0  0  1  0  0  0
  -30.0792  -21.0277  -23.8568 C   0  0  2  0  0  0
  -30.1962  -21.2443  -25.3953 C   0  0  0  0  0  0
  -31.3677  -21.9295  -25.1901 N   0  0  0  0  0  0
  -32.4013  -22.8447  -26.1185 S   0  0  0  0  0  0
  -31.5684  -23.9796  -26.5477 O   0  0  0  0  0  0
  -32.7730  -21.9392  -27.2169 O   0  5  0  0  0  0
  -33.5091  -23.2009  -25.2215 O   0  0  0  0  0  0
  -29.5690  -21.0219  -26.4109 O   0  0  0  0  0  0
  -28.8678  -21.4733  -23.1442 N   0  0  0  0  0  0
  -27.6973  -21.9595  -23.6122 C   0  0  0  0  0  0
  -26.8098  -22.6092  -22.5311 C   0  0  0  0  0  0
  -27.3281  -22.5242  -21.1451 C   0  0  0  0  0  0
  -27.1724  -21.3848  -20.3887 C   0  0  0  0  0  0
  -27.9038  -21.5437  -18.8158 S   0  0  0  0  0  0
  -28.4064  -23.1706  -19.2579 C   0  0  0  0  0  0
  -29.1689  -23.9496  -18.4070 N   0  0  0  0  0  0
  -28.0163  -23.5494  -20.4773 N   0  0  0  0  0  0
  -25.7097  -23.2379  -22.7071 N   0  0  0  0  0  0
  -25.2509  -23.2723  -24.0415 O   0  0  0  0  0  0
  -23.8619  -23.6283  -24.1172 C   0  0  0  0  0  0
  -23.6694  -25.1504  -23.9090 C   0  0  0  0  0  0
  -22.7709  -25.5418  -23.1294 O   0  5  0  0  0  0
  -24.3689  -25.9341  -24.5947 O   0  0  0  0  0  0
  -23.4539  -23.2986  -25.5674 C   0  0  0  0  0  0
  -22.9874  -22.7891  -23.1485 C   0  0  0  0  0  0
  -27.3879  -21.9543  -24.8034 O   0  0  0  0  0  0
  -30.5977  -23.6373  -22.3293 H   0  0  0  0  0  0
  -31.7179  -24.2131  -23.5455 H   0  0  0  0  0  0
  -30.0317  -23.9476  -23.9669 H   0  0  0  0  0  0
  -32.0655  -21.7262  -23.2265 H   0  0  0  0  0  0
  -30.4285  -20.0482  -23.5257 H   0  0  0  0  0  0
  -28.9779  -21.4786  -22.1394 H   0  0  0  0  0  0
  -26.6864  -20.4560  -20.6569 H   0  0  0  0  0  0
  -29.7405  -24.6482  -18.8493 H   0  0  0  0  0  0
  -29.7615  -23.3682  -17.8151 H   0  0  0  0  0  0
  -22.3829  -23.4343  -25.7222 H   0  0  0  0  0  0
  -23.9617  -23.9305  -26.2948 H   0  0  0  0  0  0
  -23.6911  -22.2628  -25.8124 H   0  0  0  0  0  0
  -21.9245  -22.9494  -23.3315 H   0  0  0  0  0  0
  -23.1829  -21.7241  -23.2765 H   0  0  0  0  0  0
  -23.1707  -23.0352  -22.1018 H   0  0  0  0  0  0
  1  2  1  0  0  0
  1 29  1  0  0  0
  1 30  1  0  0  0
  1 31  1  0  0  0
  2  5  1  0  0  0
  2  3  1  0  0  0
  2 32  1  0  0  0
  3  4  1  0  0  0
  3 11  1  0  0  0
  3 33  1  0  0  0
  4  5  1  0  0  0
  4 10  2  0  0  0
  5  6  1  0  0  0
  6  7  2  0  0  0
  6  8  1  0  0  0
  6  9  2  0  0  0
 11 12  1  0  0  0
 11 34  1  0  0  0
 12 13  1  0  0  0
 12 28  2  0  0  0
 13 14  1  0  0  0
 13 20  2  3  0  0
 14 19  1  0  0  0
 14 15  2  0  0  0
 15 16  1  0  0  0
 15 35  1  0  0  0
 16 17  1  0  0  0
 17 18  1  0  0  0
 17 19  2  0  0  0
 18 36  1  0  0  0
 18 37  1  0  0  0
 20 21  1  0  0  0
 21 22  1  0  0  0
 22 23  1  0  0  0
 22 26  1  0  0  0
 22 27  1  0  0  0
 23 24  1  0  0  0
 23 25  2  0  0  0
 26 38  1  0  0  0
 26 39  1  0  0  0
 26 40  1  0  0  0
 27 41  1  0  0  0
 27 42  1  0  0  0
 27 43  1  0  0  0
M  CHG  2   8  -1  24  -1
M  END
> <s_m_entry_id>
27373

> <s_m_entry_name>
data_maestro.21

> <s_m_Source_Path>
C:\Users\olshana1\Git\GramNeg-Accumulation\Gram Negative Permeation - OmpF

> <s_m_Source_File>
data_maestro.csv

> <i_m_Source_File_Index>
21

> <s_m_job_name>
glide-dock_Nicaido_neutral

> <s_i_glide_gridfile>
3POX-grid

> <i_i_glide_lignum>
27

> <i_i_glide_rotatable_bonds>
8

> <r_i_docking_score>
-5.19037872642207

> <r_i_glide_ligand_efficiency>
-0.185370668800788

> <r_i_glide_ligand_efficiency_sa>
-0.562894527964462

> <r_i_glide_ligand_efficiency_ln>
-1.19809180619965

> <r_i_glide_gscore>
-5.19037872642207

> <r_i_glide_lipo>
0

> <r_i_glide_hbond>
-1.06477489757749

> <r_i_glide_metal>
0

> <r_i_glide_rewards>
-0.428363133800641

> <r_i_glide_evdw>
-21.5384120941162

> <r_i_glide_ecoul>
-16.1447334289551

> <r_i_glide_erotb>
0.635830109179744

> <r_i_glide_esite>
-0.834440185174607

> <r_i_glide_emodel>
-66.1566397001564

> <r_i_glide_energy>
-37.6831455230713

> <r_i_glide_einternal>
6.4259147644043

> <i_i_glide_confnum>
53

> <i_i_glide_posenum>
306

> <r_i_glide_eff_state_penalty>
0

> <r_glide_res:A132_vdw>
-2.69898491076004

> <r_glide_res:A132_coul>
-55.0210139424589

> <r_glide_res:A132_hbond>
-0.136171726089824

> <r_glide_res:A132_dist>
2.15957068477544

> <r_glide_res:A132_Eint>
-57.8561705793087

> <r_glide_res:A117_vdw>
-1.08304492061798

> <r_glide_res:A117_coul>
36.9296445436869

> <r_glide_res:A117_hbond>
0

> <r_glide_res:A117_dist>
4.20662515839645

> <r_glide_res:A117_Eint>
35.8465996230689

> <r_glide_res:A113_vdw>
-1.49884438475157

> <r_glide_res:A113_coul>
23.0784108401942

> <r_glide_res:A113_hbond>
-0.112486549286747

> <r_glide_res:A113_dist>
2.04682319322391

> <r_glide_res:A113_Eint>
21.4670799061559

> <r_glide_res:A82_vdw>
-2.38121955620328

> <r_glide_res:A82_coul>
-72.1402443627636

> <r_glide_res:A82_hbond>
-0.185992721378414

> <r_glide_res:A82_dist>
1.84217313542052

> <r_glide_res:A82_Eint>
-74.7074566403452

> <r_glide_res:A42_vdw>
-2.56332612087786

> <r_glide_res:A42_coul>
-75.2758217769017

> <r_glide_res:A42_hbond>
-0.16

> <r_glide_res:A42_dist>
1.75896175537137

> <r_glide_res:A42_Eint>
-77.9991478977795

> <r_glide_res:A16_vdw>
-0.463959036668578

> <r_glide_res:A16_coul>
-71.103790079342

> <r_glide_res:A16_hbond>
-0.272419417383881

> <r_glide_res:A16_dist>
1.86072927656399

> <r_glide_res:A16_Eint>
-71.8401685333944

> <s_m_source_file>
ligprep_Nicaido_neutral.maegz

> <i_m_source_file_index>
21

> <i_lp_mmshare_version>
58128

> <i_f3d_flags>
0

> <s_lp_Force_Field>
S-OPLS

> <r_lp_Energy>
50.237147

> <b_lp_Chiralities_Consistent>
1

> <s_lp_Variant>
Aztreonam-2

> <s_epik_input>
Tz1TKD1PKShbT0hdKU4xQyg9TylbQ0BASF0oW0NAQEhdMVtDSDNdKVtOSF1DKD1PKS9DKGMyW2NIXXNjKG4yKVtOSDJdKT1OL09DKFtDSDNdKShbQ0gzXSlDKD1PKVtPSF0=

> <s_epik_cmdline>
J2VwaWtfcHl0aG9uJywgJy1waHQnLCAnMC4wJywgJy1waCcsICc3LjQnLCAnLW50JywgJy1tYScsICc1MDAnLCAnLWltYWUnLCAnPGluZmlsZS5tYWU+JywgJy1vbWFlJywgJzxvdXRmaWxlLm1hZT4n

> <r_lp_tautomer_probability>
1

> <r_epik_Ionization_Penalty>
  0.0004

> <r_epik_Ionization_Penalty_Charging>
  0.0000

> <r_epik_Ionization_Penalty_Neutral>
  0.0004

> <r_epik_State_Penalty>
  0.0000

> <r_epik_Charging_Adjusted_Penalty>
4.45674509427693e-05

> <i_epik_Tot_Q>
-2

> <i_epik_Tot_abs_Q>
2

> <s_epik_Chemistry_Notes>
This compound has an imine and may undergo hydrolysis.

> <s_m_subgroup_title>
glide-dock_Nicaido_neutral_pv1

> <s_m_subgroupid>
glide-dock_Nicaido_neutral_pv1

> <b_m_subgroup_collapsed>
0

$$$$
Cefaclor
                    3D
 Schrodinger Suite 2022-2.
 37 39  0  0  1  0            999 V2000
  -28.8591  -23.9375  -22.7346 O   0  0  0  0  0  0
  -29.4418  -22.9718  -22.2803 C   0  0  0  0  0  0
  -29.8571  -22.4544  -20.8766 C   0  0  2  0  0  0
  -30.3690  -21.2044  -21.6134 C   0  0  1  0  0  0
  -30.0894  -21.8895  -22.8613 N   0  0  0  0  0  0
  -30.4005  -21.3190  -24.1136 C   0  0  0  0  0  0
  -29.6936  -21.9483  -25.3606 C   0  0  0  0  0  0
  -28.5157  -22.3495  -25.2134 O   0  5  0  0  0  0
  -30.3654  -22.0432  -26.4133 O   0  0  0  0  0  0
  -31.2376  -20.2513  -24.2093 C   0  0  0  0  0  0
  -31.9741  -19.5949  -23.0484 C   0  0  0  0  0  0
  -32.1173  -20.6997  -21.6231 S   0  0  0  0  0  0
  -31.6329  -19.4378  -25.6881 Cl  0  0  0  0  0  0
  -28.7691  -22.0753  -19.9749 N   0  0  0  0  0  0
  -27.7016  -22.7990  -19.6141 C   0  0  0  0  0  0
  -26.7082  -22.1195  -18.6530 C   0  0  2  0  0  0
  -25.9338  -21.1934  -19.5374 C   0  0  0  0  0  0
  -24.7697  -21.5997  -20.2360 C   0  0  0  0  0  0
  -24.0746  -20.7165  -21.0859 C   0  0  0  0  0  0
  -24.5326  -19.3981  -21.2578 C   0  0  0  0  0  0
  -25.6819  -18.9696  -20.5724 C   0  0  0  0  0  0
  -26.3673  -19.8592  -19.7237 C   0  0  0  0  0  0
  -25.8763  -23.1013  -17.9544 N   0  0  0  0  0  0
  -27.4997  -23.9495  -20.0127 O   0  0  0  0  0  0
  -30.6606  -23.0142  -20.3976 H   0  0  0  0  0  0
  -29.7185  -20.3331  -21.5006 H   0  0  0  0  0  0
  -31.4303  -18.6983  -22.7487 H   0  0  0  0  0  0
  -32.9727  -19.2834  -23.3551 H   0  0  0  0  0  0
  -28.8944  -21.1738  -19.5301 H   0  0  0  0  0  0
  -27.2711  -21.5589  -17.9036 H   0  0  0  0  0  0
  -24.4057  -22.6098  -20.1236 H   0  0  0  0  0  0
  -23.1916  -21.0508  -21.6098 H   0  0  0  0  0  0
  -24.0096  -18.7175  -21.9145 H   0  0  0  0  0  0
  -26.0462  -17.9606  -20.7045 H   0  0  0  0  0  0
  -27.2539  -19.5106  -19.2136 H   0  0  0  0  0  0
  -25.9689  -22.9924  -16.9524 H   0  0  0  0  0  0
  -26.2286  -24.0288  -18.1427 H   0  0  0  0  0  0
  1  2  2  0  0  0
  2  5  1  0  0  0
  2  3  1  0  0  0
  3  4  1  0  0  0
  3 14  1  0  0  0
  3 25  1  0  0  0
  4 12  1  0  0  0
  4  5  1  0  0  0
  4 26  1  0  0  0
  5  6  1  0  0  0
  6  7  1  0  0  0
  6 10  2  0  0  0
  7  8  1  0  0  0
  7  9  2  0  0  0
 10 11  1  0  0  0
 10 13  1  0  0  0
 11 12  1  0  0  0
 11 27  1  0  0  0
 11 28  1  0  0  0
 14 15  1  0  0  0
 14 29  1  0  0  0
 15 16  1  0  0  0
 15 24  2  0  0  0
 16 17  1  0  0  0
 16 23  1  0  0  0
 16 30  1  0  0  0
 17 22  1  0  0  0
 17 18  2  0  0  0
 18 19  1  0  0  0
 18 31  1  0  0  0
 19 20  2  0  0  0
 19 32  1  0  0  0
 20 21  1  0  0  0
 20 33  1  0  0  0
 21 22  2  0  0  0
 21 34  1  0  0  0
 22 35  1  0  0  0
 23 36  1  0  0  0
 23 37  1  0  0  0
M  CHG  1   8  -1
M  END
> <s_m_entry_id>
27374

> <s_m_entry_name>
data_maestro.15

> <s_m_Source_Path>
C:\Users\olshana1\Git\GramNeg-Accumulation\Gram Negative Permeation - OmpF

> <s_m_Source_File>
data_maestro.csv

> <i_m_Source_File_Index>
15

> <s_m_job_name>
glide-dock_Nicaido_neutral

> <s_i_glide_gridfile>
3POX-grid

> <i_i_glide_lignum>
20

> <i_i_glide_rotatable_bonds>
5

> <r_i_docking_score>
-5.18070929753335

> <r_i_glide_ligand_efficiency>
-0.215862887397223

> <r_i_glide_ligand_efficiency_sa>
-0.622656312528311

> <r_i_glide_ligand_efficiency_ln>
-1.23998146215888

> <r_i_glide_gscore>
-5.29710929753335

> <r_i_glide_lipo>
0

> <r_i_glide_hbond>
-1.02621091618971

> <r_i_glide_metal>
0

> <r_i_glide_rewards>
-0.908180848551567

> <r_i_glide_evdw>
-21.5900955200195

> <r_i_glide_ecoul>
-15.072904586792

> <r_i_glide_erotb>
0.429266414571003

> <r_i_glide_esite>
-0.451543483343309

> <r_i_glide_emodel>
-60.348662316074

> <r_i_glide_energy>
-36.6630001068115

> <r_i_glide_einternal>
2.15437054634094

> <i_i_glide_confnum>
4

> <i_i_glide_posenum>
270

> <r_i_glide_eff_state_penalty>
0.1164

> <r_glide_res:A132_vdw>
-1.57607838004503

> <r_glide_res:A132_coul>
-32.8670653071133

> <r_glide_res:A132_hbond>
-0.16

> <r_glide_res:A132_dist>
1.95649305338929

> <r_glide_res:A132_Eint>
-34.6031436871583

> <r_glide_res:A117_vdw>
-1.82442414421129

> <r_glide_res:A117_coul>
23.7392452354611

> <r_glide_res:A117_hbond>
0

> <r_glide_res:A117_dist>
2.52946817704988

> <r_glide_res:A117_Eint>
21.9148210912498

> <r_glide_res:A113_vdw>
-3.8761222612878

> <r_glide_res:A113_coul>
10.5226403971719

> <r_glide_res:A113_hbond>
0

> <r_glide_res:A113_dist>
2.53189820894665

> <r_glide_res:A113_Eint>
6.64651813588412

> <r_glide_res:A82_vdw>
-1.31478681200655

> <r_glide_res:A82_coul>
-41.9026484019805

> <r_glide_res:A82_hbond>
-0.215565994804446

> <r_glide_res:A82_dist>
2.01034785426628

> <r_glide_res:A82_Eint>
-43.4330012087915

> <r_glide_res:A42_vdw>
0.570344383299525

> <r_glide_res:A42_coul>
-53.4254527028195

> <r_glide_res:A42_hbond>
-0.47445512814238

> <r_glide_res:A42_dist>
1.98937596999397

> <r_glide_res:A42_Eint>
-53.3295634476624

> <r_glide_res:A16_vdw>
-0.0412469290272891

> <r_glide_res:A16_coul>
-48.5805557187039

> <r_glide_res:A16_hbond>
-0.176189793242879

> <r_glide_res:A16_dist>
1.92226361309226

> <r_glide_res:A16_Eint>
-48.797992440974

> <s_m_source_file>
ligprep_Nicaido_neutral.maegz

> <i_m_source_file_index>
15

> <i_lp_mmshare_version>
58128

> <i_f3d_flags>
0

> <s_lp_Force_Field>
S-OPLS

> <r_lp_Energy>
48.098991

> <b_lp_Chiralities_Consistent>
1

> <s_lp_Variant>
Cefaclor-1

> <s_epik_input>
UzFbQ0gyXUMoQ2wpPUMoQyg9TylbT0hdKU4oW0NAQEhdMTIpQyg9TylbQ0BIXTJbTkhdQyg9TylbQ0BASF0oW05IMl0pYzNbY0hdW2NIXVtjSF1bY0hdW2NIXTM=

> <s_epik_cmdline>
J2VwaWtfcHl0aG9uJywgJy1waHQnLCAnMC4wJywgJy1waCcsICc3LjQnLCAnLW50JywgJy1tYScsICc1MDAnLCAnLWltYWUnLCAnPGluZmlsZS5tYWU+JywgJy1vbWFlJywgJzxvdXRmaWxlLm1hZT4n

> <r_epik_Ionization_Penalty>
  0.1164

> <r_epik_Ionization_Penalty_Charging>
  0.0000

> <r_epik_Ionization_Penalty_Neutral>
  0.1164

> <r_epik_State_Penalty>
  0.1164

> <r_epik_Charging_Adjusted_Penalty>
0.116403072965043

> <i_epik_Tot_Q>
-1

> <i_epik_Tot_abs_Q>
1

> <s_epik_Chemistry_Notes>
This compound contains an acetal/aminal-like group ( X-CH(R)-Y where X, Y are N, S, or O) that may be acid/base labile, releasing an aldehyde.

> <s_m_subgroup_title>
glide-dock_Nicaido_neutral_pv1

> <s_m_subgroupid>
glide-dock_Nicaido_neutral_pv1

> <b_m_subgroup_collapsed>
0

$$$$
Aztreonam
                    3D
 Schrodinger Suite 2022-2.
 43 44  0  0  1  0            999 V2000
  -24.8980  -22.3503  -24.6697 C   0  0  0  0  0  0
  -24.4821  -22.3910  -23.2056 C   0  0  1  0  0  0
  -25.4674  -22.0039  -22.0709 C   0  0  2  0  0  0
  -25.0937  -23.3766  -21.4544 C   0  0  0  0  0  0
  -24.4725  -23.7359  -22.6382 N   0  0  0  0  0  0
  -23.6054  -25.0250  -23.2778 S   0  0  0  0  0  0
  -22.2769  -24.4942  -23.6134 O   0  0  0  0  0  0
  -24.3689  -25.4639  -24.4569 O   0  5  0  0  0  0
  -23.5688  -26.0426  -22.2172 O   0  0  0  0  0  0
  -25.2589  -23.9495  -20.3992 O   0  0  0  0  0  0
  -26.8822  -21.8124  -22.4833 N   0  0  0  0  0  0
  -27.8297  -22.7358  -22.7740 C   0  0  0  0  0  0
  -29.2096  -22.2039  -23.1179 C   0  0  0  0  0  0
  -29.4577  -20.7590  -22.8806 C   0  0  0  0  0  0
  -29.6329  -20.2674  -21.6101 C   0  0  0  0  0  0
  -30.1366  -18.6019  -21.6190 S   0  0  0  0  0  0
  -30.0665  -18.6386  -23.3704 C   0  0  0  0  0  0
  -30.4383  -17.5496  -24.1287 N   0  0  0  0  0  0
  -29.6533  -19.7970  -23.8780 N   0  0  0  0  0  0
  -30.0954  -22.9903  -23.5959 N   0  0  0  0  0  0
  -31.3117  -22.3144  -23.8443 O   0  0  0  0  0  0
  -32.1138  -22.9608  -24.8428 C   0  0  0  0  0  0
  -31.4896  -22.8900  -26.2618 C   0  0  0  0  0  0
  -30.3690  -22.3485  -26.4133 O   0  5  0  0  0  0
  -32.1318  -23.3860  -27.2138 O   0  0  0  0  0  0
  -32.4399  -24.4236  -24.4657 C   0  0  0  0  0  0
  -33.4112  -22.1330  -24.8560 C   0  0  0  0  0  0
  -27.6239  -23.9490  -22.7880 O   0  0  0  0  0  0
  -25.0373  -21.3246  -25.0130 H   0  0  0  0  0  0
  -24.1468  -22.8108  -25.3118 H   0  0  0  0  0  0
  -25.8340  -22.8797  -24.8132 H   0  0  0  0  0  0
  -23.5047  -21.9306  -23.0450 H   0  0  0  0  0  0
  -25.0903  -21.1544  -21.5006 H   0  0  0  0  0  0
  -27.1805  -20.8467  -22.5162 H   0  0  0  0  0  0
  -29.5682  -20.7904  -20.6665 H   0  0  0  0  0  0
  -30.1997  -17.4898  -25.1079 H   0  0  0  0  0  0
  -30.6918  -16.6831  -23.6724 H   0  0  0  0  0  0
  -33.1979  -24.8422  -25.1280 H   0  0  0  0  0  0
  -31.5690  -25.0711  -24.5330 H   0  0  0  0  0  0
  -32.8233  -24.4878  -23.4472 H   0  0  0  0  0  0
  -34.1354  -22.5219  -25.5733 H   0  0  0  0  0  0
  -33.8875  -22.1372  -23.8747 H   0  0  0  0  0  0
  -33.2143  -21.0921  -25.1158 H   0  0  0  0  0  0
  1  2  1  0  0  0
  1 29  1  0  0  0
  1 30  1  0  0  0
  1 31  1  0  0  0
  2  5  1  0  0  0
  2  3  1  0  0  0
  2 32  1  0  0  0
  3  4  1  0  0  0
  3 11  1  0  0  0
  3 33  1  0  0  0
  4  5  1  0  0  0
  4 10  2  0  0  0
  5  6  1  0  0  0
  6  7  2  0  0  0
  6  8  1  0  0  0
  6  9  2  0  0  0
 11 12  1  0  0  0
 11 34  1  0  0  0
 12 13  1  0  0  0
 12 28  2  0  0  0
 13 14  1  0  0  0
 13 20  2  3  0  0
 14 19  1  0  0  0
 14 15  2  0  0  0
 15 16  1  0  0  0
 15 35  1  0  0  0
 16 17  1  0  0  0
 17 18  1  0  0  0
 17 19  2  0  0  0
 18 36  1  0  0  0
 18 37  1  0  0  0
 20 21  1  0  0  0
 21 22  1  0  0  0
 22 23  1  0  0  0
 22 26  1  0  0  0
 22 27  1  0  0  0
 23 24  1  0  0  0
 23 25  2  0  0  0
 26 38  1  0  0  0
 26 39  1  0  0  0
 26 40  1  0  0  0
 27 41  1  0  0  0
 27 42  1  0  0  0
 27 43  1  0  0  0
M  CHG  2   8  -1  24  -1
M  END
> <s_m_entry_id>
27375

> <s_m_entry_name>
data_maestro.21

> <s_m_Source_Path>
C:\Users\olshana1\Git\GramNeg-Accumulation\Gram Negative Permeation - OmpF

> <s_m_Source_File>
data_maestro.csv

> <i_m_Source_File_Index>
21

> <s_m_job_name>
glide-dock_Nicaido_neutral

> <s_i_glide_gridfile>
3POX-grid

> <i_i_glide_lignum>
26

> <i_i_glide_rotatable_bonds>
8

> <r_i_docking_score>
-5.18025792960735

> <r_i_glide_ligand_efficiency>
-0.185009211771691

> <r_i_glide_ligand_efficiency_sa>
-0.561796931537318

> <r_i_glide_ligand_efficiency_ln>
-1.1957556291353

> <r_i_glide_gscore>
-5.18025792960735

> <r_i_glide_lipo>
0

> <r_i_glide_hbond>
-0.959282763374164

> <r_i_glide_metal>
0

> <r_i_glide_rewards>
-0.374310007812877

> <r_i_glide_evdw>
-17.9139976501465

> <r_i_glide_ecoul>
-18.2352485656738

> <r_i_glide_erotb>
0.635830109179744

> <r_i_glide_esite>
-0.851508100241652

> <r_i_glide_emodel>
-62.056924740176

> <r_i_glide_energy>
-36.1492462158203

> <r_i_glide_einternal>
11.2911062240601

> <i_i_glide_confnum>
88

> <i_i_glide_posenum>
217

> <r_i_glide_eff_state_penalty>
0

> <r_glide_res:A132_vdw>
-0.833888535919512

> <r_glide_res:A132_coul>
-63.2726409762827

> <r_glide_res:A132_hbond>
-0.16

> <r_glide_res:A132_dist>
1.97177779763754

> <r_glide_res:A132_Eint>
-64.2665295122022

> <r_glide_res:A117_vdw>
-3.06024024059716

> <r_glide_res:A117_coul>
34.6141983946341

> <r_glide_res:A117_hbond>
0

> <r_glide_res:A117_dist>
2.51409338209456

> <r_glide_res:A117_Eint>
31.5539581540369

> <r_glide_res:A113_vdw>
-1.90564835733535

> <r_glide_res:A113_coul>
31.8503637661527

> <r_glide_res:A113_hbond>
0

> <r_glide_res:A113_dist>
2.57077862471036

> <r_glide_res:A113_Eint>
29.9447154088173

> <r_glide_res:A82_vdw>
0.66080368094272

> <r_glide_res:A82_coul>
-76.4259570454652

> <r_glide_res:A82_hbond>
-0.297022281576158

> <r_glide_res:A82_dist>
1.62667496743094

> <r_glide_res:A82_Eint>
-76.0621756460987

> <r_glide_res:A42_vdw>
-0.917975687282628

> <r_glide_res:A42_coul>
-72.71803931101

> <r_glide_res:A42_hbond>
-0.143926440715556

> <r_glide_res:A42_dist>
1.6834157674355

> <r_glide_res:A42_Eint>
-73.7799414390082

> <r_glide_res:A16_vdw>
-0.946197637733044

> <r_glide_res:A16_coul>
-71.7859433780335

> <r_glide_res:A16_hbond>
-0.160068320134383

> <r_glide_res:A16_dist>
2.08025340775531

> <r_glide_res:A16_Eint>
-72.892209335901

> <s_m_source_file>
ligprep_Nicaido_neutral.maegz

> <i_m_source_file_index>
21

> <i_lp_mmshare_version>
58128

> <i_f3d_flags>
0

> <s_lp_Force_Field>
S-OPLS

> <r_lp_Energy>
55.612973

> <b_lp_Chiralities_Consistent>
1

> <s_lp_Variant>
Aztreonam-1

> <s_epik_input>
Tz1TKD1PKShbT0hdKU4xQyg9TylbQ0BASF0oW0NAQEhdMVtDSDNdKVtOSF1DKD1PKS9DKGMyW2NIXXNjKG4yKVtOSDJdKT1OL09DKFtDSDNdKShbQ0gzXSlDKD1PKVtPSF0=

> <s_epik_cmdline>
J2VwaWtfcHl0aG9uJywgJy1waHQnLCAnMC4wJywgJy1waCcsICc3LjQnLCAnLW50JywgJy1tYScsICc1MDAnLCAnLWltYWUnLCAnPGluZmlsZS5tYWU+JywgJy1vbWFlJywgJzxvdXRmaWxlLm1hZT4n

> <r_lp_tautomer_probability>
1

> <r_epik_Ionization_Penalty>
  0.0004

> <r_epik_Ionization_Penalty_Charging>
  0.0000

> <r_epik_Ionization_Penalty_Neutral>
  0.0004

> <r_epik_State_Penalty>
  0.0000

> <r_epik_Charging_Adjusted_Penalty>
4.45674509427693e-05

> <i_epik_Tot_Q>
-2

> <i_epik_Tot_abs_Q>
2

> <s_epik_Chemistry_Notes>
This compound has an imine and may undergo hydrolysis.

> <s_m_subgroup_title>
glide-dock_Nicaido_neutral_pv1

> <s_m_subgroupid>
glide-dock_Nicaido_neutral_pv1

> <b_m_subgroup_collapsed>
0

$$$$
LY097964
                    3D
 Schrodinger Suite 2022-2.
 40 42  0  0  1  0            999 V2000
  -24.5890  -22.4642  -15.9772 C   0  0  0  0  0  0
  -24.8245  -21.9729  -17.2828 O   0  0  0  0  0  0
  -25.9280  -22.6647  -17.7980 N   0  0  0  0  0  0
  -26.4228  -22.1441  -18.8507 C   0  0  0  0  0  0
  -25.9428  -20.9031  -19.5446 C   0  0  0  0  0  0
  -25.5688  -19.7614  -18.8705 C   0  0  0  0  0  0
  -25.1039  -18.4710  -19.9477 S   0  0  0  0  0  0
  -25.4117  -19.5467  -21.2989 C   0  0  0  0  0  0
  -25.2285  -19.1498  -22.6098 N   0  0  0  0  0  0
  -25.8184  -20.7627  -20.9369 N   0  0  0  0  0  0
  -27.5974  -22.8288  -19.5188 C   0  0  0  0  0  0
  -28.5090  -21.9775  -20.0135 N   0  0  0  0  0  0
  -29.6676  -22.3273  -20.8307 C   0  0  1  0  0  0
  -30.1618  -21.0890  -21.5941 C   0  0  1  0  0  0
  -29.8966  -21.7999  -22.8320 N   0  0  0  0  0  0
  -29.3152  -22.9076  -22.2262 C   0  0  0  0  0  0
  -28.7743  -23.9069  -22.6581 O   0  0  0  0  0  0
  -30.1301  -21.2100  -24.0957 C   0  0  0  0  0  0
  -29.3766  -21.8670  -25.3187 C   0  0  0  0  0  0
  -28.2338  -22.3373  -25.1199 O   0  5  0  0  0  0
  -29.9844  -21.9272  -26.4132 O   0  0  0  0  0  0
  -30.9237  -20.1055  -24.2208 C   0  0  0  0  0  0
  -31.7323  -19.4984  -23.0703 C   0  0  0  0  0  0
  -31.8973  -20.5759  -21.6245 S   0  0  0  0  0  0
  -31.1265  -19.3273  -25.5155 C   0  0  0  0  0  0
  -27.6737  -24.0575  -19.6123 O   0  0  0  0  0  0
  -23.7664  -21.9180  -15.5159 H   0  0  0  0  0  0
  -25.4687  -22.3494  -15.3402 H   0  0  0  0  0  0
  -24.3204  -23.5191  -16.0127 H   0  0  0  0  0  0
  -25.5672  -19.5891  -17.8032 H   0  0  0  0  0  0
  -25.6563  -19.7164  -23.3265 H   0  0  0  0  0  0
  -25.2778  -18.1591  -22.8169 H   0  0  0  0  0  0
  -28.4010  -20.9921  -19.8137 H   0  0  0  0  0  0
  -30.4617  -22.8475  -20.2956 H   0  0  0  0  0  0
  -29.5040  -20.2214  -21.4970 H   0  0  0  0  0  0
  -31.2554  -18.5672  -22.7615 H   0  0  0  0  0  0
  -32.7356  -19.2487  -23.4156 H   0  0  0  0  0  0
  -31.2038  -18.2597  -25.3029 H   0  0  0  0  0  0
  -30.3012  -19.4394  -26.2162 H   0  0  0  0  0  0
  -32.0499  -19.6429  -26.0019 H   0  0  0  0  0  0
  1  2  1  0  0  0
  1 27  1  0  0  0
  1 28  1  0  0  0
  1 29  1  0  0  0
  2  3  1  0  0  0
  3  4  2  3  0  0
  4  5  1  0  0  0
  4 11  1  0  0  0
  5 10  1  0  0  0
  5  6  2  0  0  0
  6  7  1  0  0  0
  6 30  1  0  0  0
  7  8  1  0  0  0
  8  9  1  0  0  0
  8 10  2  0  0  0
  9 31  1  0  0  0
  9 32  1  0  0  0
 11 12  1  0  0  0
 11 26  2  0  0  0
 12 13  1  0  0  0
 12 33  1  0  0  0
 13 16  1  0  0  0
 13 14  1  0  0  0
 13 34  1  0  0  0
 14 24  1  0  0  0
 14 15  1  0  0  0
 14 35  1  0  0  0
 15 16  1  0  0  0
 15 18  1  0  0  0
 16 17  2  0  0  0
 18 19  1  0  0  0
 18 22  2  0  0  0
 19 20  1  0  0  0
 19 21  2  0  0  0
 22 23  1  0  0  0
 22 25  1  0  0  0
 23 24  1  0  0  0
 23 36  1  0  0  0
 23 37  1  0  0  0
 25 38  1  0  0  0
 25 39  1  0  0  0
 25 40  1  0  0  0
M  CHG  1  20  -1
M  END
> <s_m_entry_id>
27376

> <s_m_entry_name>
data_maestro.7

> <s_m_Source_Path>
C:\Users\olshana1\Git\GramNeg-Accumulation\Gram Negative Permeation - OmpF

> <s_m_Source_File>
data_maestro.csv

> <i_m_Source_File_Index>
7

> <s_m_job_name>
glide-dock_Nicaido_neutral

> <s_i_glide_gridfile>
3POX-grid

> <i_i_glide_lignum>
9

> <i_i_glide_rotatable_bonds>
6

> <r_i_docking_score>
-5.1768937838024

> <r_i_glide_ligand_efficiency>
-0.199111299377015

> <r_i_glide_ligand_efficiency_sa>
-0.589866440939277

> <r_i_glide_ligand_efficiency_ln>
-1.21577651835199

> <r_i_glide_gscore>
-5.1768937838024

> <r_i_glide_lipo>
-0.0116027868821259

> <r_i_glide_hbond>
-1.08956577291418

> <r_i_glide_metal>
0

> <r_i_glide_rewards>
-0.697069157625908

> <r_i_glide_evdw>
-27.4646968841553

> <r_i_glide_ecoul>
-13.1155614852905

> <r_i_glide_erotb>
0.622478626066327

> <r_i_glide_esite>
-0.66056562544517

> <r_i_glide_emodel>
-63.9345455009973

> <r_i_glide_energy>
-40.5802583694458

> <r_i_glide_einternal>
5.24900054931641

> <i_i_glide_confnum>
83

> <i_i_glide_posenum>
133

> <r_i_glide_eff_state_penalty>
0

> <r_glide_res:A132_vdw>
-1.52522778326141

> <r_glide_res:A132_coul>
-34.1592933901969

> <r_glide_res:A132_hbond>
-0.16

> <r_glide_res:A132_dist>
1.94596221281859

> <r_glide_res:A132_Eint>
-35.8445211734583

> <r_glide_res:A117_vdw>
-2.87135706257288

> <r_glide_res:A117_coul>
21.0647751981675

> <r_glide_res:A117_hbond>
-0.0207472962127779

> <r_glide_res:A117_dist>
2.44913863339253

> <r_glide_res:A117_Eint>
18.1726708393818

> <r_glide_res:A113_vdw>
-3.86086991666177

> <r_glide_res:A113_coul>
15.0023452386491

> <r_glide_res:A113_hbond>
0

> <r_glide_res:A113_dist>
2.43982442013024

> <r_glide_res:A113_Eint>
11.1414753219874

> <r_glide_res:A82_vdw>
-1.56034950929884

> <r_glide_res:A82_coul>
-41.8403164350215

> <r_glide_res:A82_hbond>
-0.221734465777763

> <r_glide_res:A82_dist>
2.09534462793818

> <r_glide_res:A82_Eint>
-43.6224004100981

> <r_glide_res:A42_vdw>
1.26737395997758

> <r_glide_res:A42_coul>
-54.1144386806476

> <r_glide_res:A42_hbond>
-0.487084010923641

> <r_glide_res:A42_dist>
1.85465495988178

> <r_glide_res:A42_Eint>
-53.3341487315936

> <r_glide_res:A16_vdw>
-0.350124665112501

> <r_glide_res:A16_coul>
-45.8578418350871

> <r_glide_res:A16_hbond>
-0.2

> <r_glide_res:A16_dist>
1.89580169900592

> <r_glide_res:A16_Eint>
-46.4079665001996

> <s_m_source_file>
ligprep_Nicaido_neutral.maegz

> <i_m_source_file_index>
7

> <i_lp_mmshare_version>
58128

> <i_f3d_flags>
0

> <s_lp_Force_Field>
S-OPLS

> <r_lp_Energy>
53.750759

> <b_lp_Chiralities_Consistent>
1

> <s_lp_Variant>
LY097964-1

> <s_epik_input>
W05IMl1jKG4xKXNbY0hdYzEvQyg9TlxPW0NIM10pQyg9TylbTkhdW0NAQEhdMkMoPU8pTihbQ0BIXTIzKUMoQyg9TylbT0hdKT1DKFtDSDJdUzMpW0NIM10=

> <s_epik_cmdline>
J2VwaWtfcHl0aG9uJywgJy1waHQnLCAnMC4wJywgJy1waCcsICc3LjQnLCAnLW50JywgJy1tYScsICc1MDAnLCAnLWltYWUnLCAnPGluZmlsZS5tYWU+JywgJy1vbWFlJywgJzxvdXRmaWxlLm1hZT4n

> <r_lp_tautomer_probability>
1

> <r_epik_Ionization_Penalty>
  0.0005

> <r_epik_Ionization_Penalty_Charging>
  0.0000

> <r_epik_Ionization_Penalty_Neutral>
  0.0005

> <r_epik_State_Penalty>
  0.0000

> <r_epik_Charging_Adjusted_Penalty>
1.64985111359435e-05

> <i_epik_Tot_Q>
-1

> <i_epik_Tot_abs_Q>
1

> <s_epik_Chemistry_Notes>
This compound has an imine and may undergo hydrolysis. This compound contains an acetal/aminal-like group ( X-CH(R)-Y where X, Y are N, S, or O) that may be acid/base labile, releasing an aldehyde.

> <s_m_subgroup_title>
glide-dock_Nicaido_neutral_pv1

> <s_m_subgroupid>
glide-dock_Nicaido_neutral_pv1

> <b_m_subgroup_collapsed>
0

$$$$
LY097964
                    3D
 Schrodinger Suite 2022-2.
 40 42  0  0  1  0            999 V2000
  -28.9175  -25.9801  -17.2828 C   0  0  0  0  0  0
  -28.1658  -24.8331  -17.6139 O   0  0  0  0  0  0
  -28.6882  -24.2763  -18.7767 N   0  0  0  0  0  0
  -28.0813  -23.2146  -19.1414 C   0  0  0  0  0  0
  -26.8967  -22.5632  -18.5160 C   0  0  0  0  0  0
  -25.8266  -23.2700  -18.0138 C   0  0  0  0  0  0
  -24.5994  -22.2305  -17.3405 S   0  0  0  0  0  0
  -25.5685  -20.8535  -17.8277 C   0  0  0  0  0  0
  -25.1689  -19.5493  -17.6105 N   0  0  0  0  0  0
  -26.7168  -21.1802  -18.4105 N   0  0  0  0  0  0
  -28.5161  -22.5338  -20.3963 C   0  0  0  0  0  0
  -29.8370  -22.2817  -20.4136 N   0  0  0  0  0  0
  -30.6544  -21.8024  -21.5334 C   0  0  1  0  0  0
  -30.1882  -20.4593  -22.1322 C   0  0  1  0  0  0
  -30.1176  -21.1395  -23.4122 N   0  0  0  0  0  0
  -30.2787  -22.4194  -22.9033 C   0  0  0  0  0  0
  -30.1316  -23.5311  -23.3742 O   0  0  0  0  0  0
  -29.6767  -20.4809  -24.5714 C   0  0  0  0  0  0
  -28.9882  -21.4174  -25.6104 C   0  0  0  0  0  0
  -27.9693  -22.0340  -25.2136 O   0  5  0  0  0  0
  -29.5687  -21.5494  -26.7138 O   0  0  0  0  0  0
  -29.7710  -19.1297  -24.7173 C   0  0  0  0  0  0
  -30.3725  -18.2033  -23.6544 C   0  0  0  0  0  0
  -31.3132  -19.0499  -22.3504 S   0  0  0  0  0  0
  -29.2317  -18.3658  -25.9238 C   0  0  0  0  0  0
  -27.7249  -22.3158  -21.3133 O   0  0  0  0  0  0
  -28.5831  -26.3504  -16.3162 H   0  0  0  0  0  0
  -29.9807  -25.7582  -17.2077 H   0  0  0  0  0  0
  -28.7683  -26.7715  -18.0147 H   0  0  0  0  0  0
  -25.7028  -24.3400  -17.9716 H   0  0  0  0  0  0
  -25.9100  -18.8538  -17.6135 H   0  0  0  0  0  0
  -24.4360  -19.3660  -16.9412 H   0  0  0  0  0  0
  -30.3322  -22.3495  -19.5180 H   0  0  0  0  0  0
  -31.7221  -21.8014  -21.3120 H   0  0  0  0  0  0
  -29.2004  -20.1264  -21.8078 H   0  0  0  0  0  0
  -29.5686  -17.6418  -23.1828 H   0  0  0  0  0  0
  -31.0319  -17.4739  -24.1232 H   0  0  0  0  0  0
  -28.3848  -17.7468  -25.6239 H   0  0  0  0  0  0
  -28.8961  -18.9992  -26.7436 H   0  0  0  0  0  0
  -30.0018  -17.7047  -26.3205 H   0  0  0  0  0  0
  1  2  1  0  0  0
  1 27  1  0  0  0
  1 28  1  0  0  0
  1 29  1  0  0  0
  2  3  1  0  0  0
  3  4  2  3  0  0
  4  5  1  0  0  0
  4 11  1  0  0  0
  5 10  1  0  0  0
  5  6  2  0  0  0
  6  7  1  0  0  0
  6 30  1  0  0  0
  7  8  1  0  0  0
  8  9  1  0  0  0
  8 10  2  0  0  0
  9 31  1  0  0  0
  9 32  1  0  0  0
 11 12  1  0  0  0
 11 26  2  0  0  0
 12 13  1  0  0  0
 12 33  1  0  0  0
 13 16  1  0  0  0
 13 14  1  0  0  0
 13 34  1  0  0  0
 14 24  1  0  0  0
 14 15  1  0  0  0
 14 35  1  0  0  0
 15 16  1  0  0  0
 15 18  1  0  0  0
 16 17  2  0  0  0
 18 19  1  0  0  0
 18 22  2  0  0  0
 19 20  1  0  0  0
 19 21  2  0  0  0
 22 23  1  0  0  0
 22 25  1  0  0  0
 23 24  1  0  0  0
 23 36  1  0  0  0
 23 37  1  0  0  0
 25 38  1  0  0  0
 25 39  1  0  0  0
 25 40  1  0  0  0
M  CHG  1  20  -1
M  END
> <s_m_entry_id>
27377

> <s_m_entry_name>
data_maestro.7

> <s_m_Source_Path>
C:\Users\olshana1\Git\GramNeg-Accumulation\Gram Negative Permeation - OmpF

> <s_m_Source_File>
data_maestro.csv

> <i_m_Source_File_Index>
7

> <s_m_job_name>
glide-dock_Nicaido_neutral

> <s_i_glide_gridfile>
3POX-grid

> <i_i_glide_lignum>
9

> <i_i_glide_rotatable_bonds>
6

> <r_i_docking_score>
-5.17621112825159

> <r_i_glide_ligand_efficiency>
-0.199085043394292

> <r_i_glide_ligand_efficiency_sa>
-0.589788657693771

> <r_i_glide_ligand_efficiency_ln>
-1.21561619893585

> <r_i_glide_gscore>
-5.17621112825159

> <r_i_glide_lipo>
-0.0203319449156897

> <r_i_glide_hbond>
-1.03307290110693

> <r_i_glide_metal>
0

> <r_i_glide_rewards>
-0.705824441356191

> <r_i_glide_evdw>
-30.1411914825439

> <r_i_glide_ecoul>
-11.8115386962891

> <r_i_glide_erotb>
0.622478626066327

> <r_i_glide_esite>
-0.760670088368547

> <r_i_glide_emodel>
-63.7934026542388

> <r_i_glide_energy>
-41.952730178833

> <r_i_glide_einternal>
8.31940174102783

> <i_i_glide_confnum>
8

> <i_i_glide_posenum>
99

> <r_i_glide_eff_state_penalty>
0

> <r_glide_res:A132_vdw>
-2.55095491745933

> <r_glide_res:A132_coul>
-23.7966580335114

> <r_glide_res:A132_hbond>
0

> <r_glide_res:A132_dist>
2.27900714945251

> <r_glide_res:A132_Eint>
-26.3476129509707

> <r_glide_res:A117_vdw>
-3.54360751705527

> <r_glide_res:A117_coul>
27.568907872799

> <r_glide_res:A117_hbond>
0

> <r_glide_res:A117_dist>
2.16170623011528

> <r_glide_res:A117_Eint>
24.0253003557437

> <r_glide_res:A113_vdw>
-1.83547534848932

> <r_glide_res:A113_coul>
9.90892479575631

> <r_glide_res:A113_hbond>
-0.152

> <r_glide_res:A113_dist>
1.68500468801905

> <r_glide_res:A113_Eint>
7.92144944726699

> <r_glide_res:A82_vdw>
-1.48852169664001

> <r_glide_res:A82_coul>
-37.5263333412661

> <r_glide_res:A82_hbond>
-0.0801638561634114

> <r_glide_res:A82_dist>
2.24218261394458

> <r_glide_res:A82_Eint>
-39.0950188940695

> <r_glide_res:A42_vdw>
0.682999881744951

> <r_glide_res:A42_coul>
-54.9912643734987

> <r_glide_res:A42_hbond>
-0.296909044943522

> <r_glide_res:A42_dist>
1.75790589975592

> <r_glide_res:A42_Eint>
-54.6051735366973

> <r_glide_res:A16_vdw>
2.10341729321149

> <r_glide_res:A16_coul>
-52.2067011339117

> <r_glide_res:A16_hbond>
-0.2

> <r_glide_res:A16_dist>
1.62828940895463

> <r_glide_res:A16_Eint>
-50.3032838407002

> <s_m_source_file>
ligprep_Nicaido_neutral.maegz

> <i_m_source_file_index>
7

> <i_lp_mmshare_version>
58128

> <i_f3d_flags>
0

> <s_lp_Force_Field>
S-OPLS

> <r_lp_Energy>
53.750759

> <b_lp_Chiralities_Consistent>
1

> <s_lp_Variant>
LY097964-1

> <s_epik_input>
W05IMl1jKG4xKXNbY0hdYzEvQyg9TlxPW0NIM10pQyg9TylbTkhdW0NAQEhdMkMoPU8pTihbQ0BIXTIzKUMoQyg9TylbT0hdKT1DKFtDSDJdUzMpW0NIM10=

> <s_epik_cmdline>
J2VwaWtfcHl0aG9uJywgJy1waHQnLCAnMC4wJywgJy1waCcsICc3LjQnLCAnLW50JywgJy1tYScsICc1MDAnLCAnLWltYWUnLCAnPGluZmlsZS5tYWU+JywgJy1vbWFlJywgJzxvdXRmaWxlLm1hZT4n

> <r_lp_tautomer_probability>
1

> <r_epik_Ionization_Penalty>
  0.0005

> <r_epik_Ionization_Penalty_Charging>
  0.0000

> <r_epik_Ionization_Penalty_Neutral>
  0.0005

> <r_epik_State_Penalty>
  0.0000

> <r_epik_Charging_Adjusted_Penalty>
1.64985111359435e-05

> <i_epik_Tot_Q>
-1

> <i_epik_Tot_abs_Q>
1

> <s_epik_Chemistry_Notes>
This compound has an imine and may undergo hydrolysis. This compound contains an acetal/aminal-like group ( X-CH(R)-Y where X, Y are N, S, or O) that may be acid/base labile, releasing an aldehyde.

> <s_m_subgroup_title>
glide-dock_Nicaido_neutral_pv1

> <s_m_subgroupid>
glide-dock_Nicaido_neutral_pv1

> <b_m_subgroup_collapsed>
0

$$$$
Ceftazidime
                    3D
 Schrodinger Suite 2022-2.
 58 61  0  0  1  0            999 V2000
  -23.0260  -25.1185  -19.6934 C   0  0  0  0  0  0
  -22.7008  -24.2820  -20.9561 C   0  0  0  0  0  0
  -21.3534  -23.5606  -20.7487 C   0  0  0  0  0  0
  -22.6100  -25.1807  -22.2250 C   0  0  0  0  0  0
  -23.1689  -26.3056  -22.2046 O   0  5  0  0  0  0
  -21.9699  -24.7496  -23.2134 O   0  0  0  0  0  0
  -23.6454  -23.2122  -21.1137 O   0  0  0  0  0  0
  -24.9436  -23.7083  -21.3333 N   0  0  0  0  0  0
  -25.8336  -22.8005  -21.3709 C   0  0  0  0  0  0
  -27.2688  -23.2017  -21.6634 C   0  0  0  0  0  0
  -28.1731  -22.2290  -21.5192 N   0  0  0  0  0  0
  -29.6074  -22.3318  -21.7764 C   0  0  1  0  0  0
  -30.1977  -20.9310  -21.9908 C   0  0  2  0  0  0
  -30.2151  -21.2213  -23.4175 N   0  0  0  0  0  0
  -30.5236  -20.2459  -24.3931 C   0  0  0  0  0  0
  -30.8062  -20.7839  -25.8493 C   0  0  0  0  0  0
  -31.8385  -20.3484  -26.4009 O   0  5  0  0  0  0
  -29.9686  -21.5491  -26.3889 O   0  0  0  0  0  0
  -30.5082  -18.9062  -24.1115 C   0  0  0  0  0  0
  -30.7299  -17.7972  -25.1517 C   0  0  0  0  0  0
  -32.1561  -17.4914  -25.4282 N   0  3  0  0  0  0
  -32.5870  -17.4687  -26.7178 C   0  0  0  0  0  0
  -33.9218  -17.1389  -27.0317 C   0  0  0  0  0  0
  -34.8121  -16.8166  -25.9903 C   0  0  0  0  0  0
  -34.3423  -16.8211  -24.6632 C   0  0  0  0  0  0
  -32.9985  -17.1652  -24.4146 C   0  0  0  0  0  0
  -30.1632  -18.3345  -22.7321 C   0  0  0  0  0  0
  -29.2005  -19.4429  -21.6966 S   0  0  0  0  0  0
  -29.9820  -22.5860  -23.2607 C   0  0  0  0  0  0
  -30.0352  -23.5464  -24.0055 O   0  0  0  0  0  0
  -27.5629  -24.3492  -22.0132 O   0  0  0  0  0  0
  -25.5718  -21.3440  -21.1745 C   0  0  0  0  0  0
  -25.8899  -20.7019  -19.9970 C   0  0  0  0  0  0
  -25.5127  -19.0004  -20.0561 S   0  0  0  0  0  0
  -24.9080  -19.2322  -21.6887 C   0  0  0  0  0  0
  -24.3705  -18.1839  -22.4150 N   0  0  0  0  0  0
  -25.0159  -20.4864  -22.1324 N   0  0  0  0  0  0
  -22.2524  -25.8644  -19.5079 H   0  0  0  0  0  0
  -23.0914  -24.4839  -18.8095 H   0  0  0  0  0  0
  -23.9695  -25.6527  -19.7809 H   0  0  0  0  0  0
  -20.5294  -24.2677  -20.6496 H   0  0  0  0  0  0
  -21.1222  -22.8940  -21.5808 H   0  0  0  0  0  0
  -21.3734  -22.9456  -19.8490 H   0  0  0  0  0  0
  -27.8526  -21.3061  -21.2468 H   0  0  0  0  0  0
  -30.1600  -22.9090  -21.0342 H   0  0  0  0  0  0
  -31.2072  -20.8233  -21.5863 H   0  0  0  0  0  0
  -30.2834  -16.8630  -24.8219 H   0  0  0  0  0  0
  -30.2323  -18.0540  -26.0866 H   0  0  0  0  0  0
  -31.8606  -17.7211  -27.4748 H   0  0  0  0  0  0
  -34.2545  -17.1351  -28.0602 H   0  0  0  0  0  0
  -35.8408  -16.5628  -26.1991 H   0  0  0  0  0  0
  -34.9963  -16.5570  -23.8417 H   0  0  0  0  0  0
  -32.5848  -17.1497  -23.4210 H   0  0  0  0  0  0
  -29.5712  -17.4259  -22.8231 H   0  0  0  0  0  0
  -31.0732  -18.0765  -22.1945 H   0  0  0  0  0  0
  -26.3301  -21.1117  -19.0994 H   0  0  0  0  0  0
  -24.3492  -18.2770  -23.4239 H   0  0  0  0  0  0
  -24.6220  -17.2530  -22.1171 H   0  0  0  0  0  0
  1  2  1  0  0  0
  1 38  1  0  0  0
  1 39  1  0  0  0
  1 40  1  0  0  0
  2  3  1  0  0  0
  2  4  1  0  0  0
  2  7  1  0  0  0
  3 41  1  0  0  0
  3 42  1  0  0  0
  3 43  1  0  0  0
  4  5  1  0  0  0
  4  6  2  0  0  0
  7  8  1  0  0  0
  8  9  2  3  0  0
  9 10  1  0  0  0
  9 32  1  0  0  0
 10 11  1  0  0  0
 10 31  2  0  0  0
 11 12  1  0  0  0
 11 44  1  0  0  0
 12 29  1  0  0  0
 12 13  1  0  0  0
 12 45  1  0  0  0
 13 28  1  0  0  0
 13 14  1  0  0  0
 13 46  1  0  0  0
 14 15  1  0  0  0
 14 29  1  0  0  0
 15 16  1  0  0  0
 15 19  2  0  0  0
 16 17  1  0  0  0
 16 18  2  0  0  0
 19 20  1  0  0  0
 19 27  1  0  0  0
 20 21  1  0  0  0
 20 47  1  0  0  0
 20 48  1  0  0  0
 21 26  1  0  0  0
 21 22  2  0  0  0
 22 23  1  0  0  0
 22 49  1  0  0  0
 23 24  2  0  0  0
 23 50  1  0  0  0
 24 25  1  0  0  0
 24 51  1  0  0  0
 25 26  2  0  0  0
 25 52  1  0  0  0
 26 53  1  0  0  0
 27 28  1  0  0  0
 27 54  1  0  0  0
 27 55  1  0  0  0
 29 30  2  0  0  0
 32 37  1  0  0  0
 32 33  2  0  0  0
 33 34  1  0  0  0
 33 56  1  0  0  0
 34 35  1  0  0  0
 35 36  1  0  0  0
 35 37  2  0  0  0
 36 57  1  0  0  0
 36 58  1  0  0  0
M  CHG  3   5  -1  17  -1  21   1
M  END
> <s_m_entry_id>
27378

> <s_m_entry_name>
data_maestro.30

> <s_m_Source_Path>
C:\Users\olshana1\Git\GramNeg-Accumulation\Gram Negative Permeation - OmpF

> <s_m_Source_File>
data_maestro.csv

> <i_m_Source_File_Index>
30

> <s_m_job_name>
glide-dock_Nicaido_neutral

> <s_i_glide_gridfile>
3POX-grid

> <i_i_glide_lignum>
38

> <i_i_glide_rotatable_bonds>
10

> <r_i_docking_score>
-5.17482662655078

> <r_i_glide_ligand_efficiency>
-0.139860179095967

> <r_i_glide_ligand_efficiency_sa>
-0.466045144397747

> <r_i_glide_ligand_efficiency_ln>
-1.12229858015043

> <r_i_glide_gscore>
-5.17482662655078

> <r_i_glide_lipo>
0

> <r_i_glide_hbond>
-0.774268835750887

> <r_i_glide_metal>
0

> <r_i_glide_rewards>
0.000226229648492406

> <r_i_glide_evdw>
-29.6318416595459

> <r_i_glide_ecoul>
-18.1109523773193

> <r_i_glide_erotb>
0.556495996469625

> <r_i_glide_esite>
-0.759045077342812

> <r_i_glide_emodel>
-80.788743239389

> <r_i_glide_energy>
-47.7427940368652

> <r_i_glide_einternal>
10.094349861145

> <i_i_glide_confnum>
334

> <i_i_glide_posenum>
63

> <r_i_glide_eff_state_penalty>
0

> <r_glide_res:A132_vdw>
-0.630202034246284

> <r_glide_res:A132_coul>
-46.9551978831185

> <r_glide_res:A132_hbond>
-0.105006757182195

> <r_glide_res:A132_dist>
2.13574611460913

> <r_glide_res:A132_Eint>
-47.690406674547

> <r_glide_res:A117_vdw>
-5.49167696520353

> <r_glide_res:A117_coul>
13.0422930336909

> <r_glide_res:A117_hbond>
-0.0168106079453986

> <r_glide_res:A117_dist>
2.1816769195937

> <r_glide_res:A117_Eint>
7.53380546054193

> <r_glide_res:A113_vdw>
-3.01191396388233

> <r_glide_res:A113_coul>
7.16350313588087

> <r_glide_res:A113_hbond>
0

> <r_glide_res:A113_dist>
3.09457634062597

> <r_glide_res:A113_Eint>
4.15158917199854

> <r_glide_res:A82_vdw>
-1.53733607897739

> <r_glide_res:A82_coul>
-49.5971218579418

> <r_glide_res:A82_hbond>
-0.211259033220291

> <r_glide_res:A82_dist>
1.90687071204898

> <r_glide_res:A82_Eint>
-51.3457169701394

> <r_glide_res:A42_vdw>
-1.89049222468118

> <r_glide_res:A42_coul>
-46.7278845807213

> <r_glide_res:A42_hbond>
-0.0386996556062773

> <r_glide_res:A42_dist>
2.39678168918644

> <r_glide_res:A42_Eint>
-48.6570764610087

> <r_glide_res:A16_vdw>
1.51884844064449

> <r_glide_res:A16_coul>
-40.9004764491466

> <r_glide_res:A16_hbond>
-0.202492781796725

> <r_glide_res:A16_dist>
1.80304404259644

> <r_glide_res:A16_Eint>
-39.5841207902988

> <s_m_source_file>
ligprep_Nicaido_neutral.maegz

> <i_m_source_file_index>
30

> <i_lp_mmshare_version>
58128

> <i_f3d_flags>
0

> <s_lp_Force_Field>
S-OPLS

> <r_lp_Energy>
86.633473

> <b_lp_Chiralities_Consistent>
1

> <s_lp_Variant>
Ceftazidime-1

> <s_epik_input>
W09IXUMoPU8pQyhbQ0gzXSkoW0NIM10pTy9OPUMoYzFbY0hdc2MobjEpW05IMl0pL0MoPU8pW05IXVtDQEBIXTJDKD1PKU4oW0NAQEhdMjMpQyhDKD1PKVtPSF0pPUMoW0NIMl1TMylbQ0gyXVtuK100W2NIXVtjSF1bY0hdW2NIXVtjSF00

> <s_epik_cmdline>
J2VwaWtfcHl0aG9uJywgJy1waHQnLCAnMC4wJywgJy1waCcsICc3LjQnLCAnLW50JywgJy1tYScsICc1MDAnLCAnLWltYWUnLCAnPGluZmlsZS5tYWU+JywgJy1vbWFlJywgJzxvdXRmaWxlLm1hZT4n

> <r_lp_tautomer_probability>
1

> <r_epik_Ionization_Penalty>
  0.0005

> <r_epik_Ionization_Penalty_Charging>
  0.0001

> <r_epik_Ionization_Penalty_Neutral>
  0.0005

> <r_epik_State_Penalty>
  0.0000

> <r_epik_Charging_Adjusted_Penalty>
5.84857251211915e-05

> <i_epik_Tot_Q>
-1

> <i_epik_Tot_abs_Q>
3

> <s_epik_Chemistry_Notes>
This compound has an imine and may undergo hydrolysis. This compound contains an acetal/aminal-like group ( X-CH(R)-Y where X, Y are N, S, or O) that may be acid/base labile, releasing an aldehyde.

> <s_m_subgroup_title>
glide-dock_Nicaido_neutral_pv1

> <s_m_subgroupid>
glide-dock_Nicaido_neutral_pv1

> <b_m_subgroup_collapsed>
0

$$$$
Nocardicin B
                    3D
 Schrodinger Suite 2022-2.
 59 61  0  0  1  0            999 V2000
  -29.2674  -23.5504  -23.1667 O   0  0  0  0  0  0
  -29.7730  -22.4512  -23.2613 C   0  0  0  0  0  0
  -29.3850  -21.0215  -22.8625 C   0  0  2  0  0  0
  -30.6326  -20.5923  -23.6368 C   0  0  0  0  0  0
  -30.9671  -22.0146  -23.8027 N   0  0  0  0  0  0
  -32.0800  -22.6638  -24.5050 C   0  0  2  0  0  0
  -32.8471  -23.6449  -23.6350 C   0  0  0  0  0  0
  -33.8993  -24.4224  -24.1875 C   0  0  0  0  0  0
  -34.6222  -25.3617  -23.4260 C   0  0  0  0  0  0
  -34.3258  -25.5353  -22.0640 C   0  0  0  0  0  0
  -33.3216  -24.7496  -21.4719 C   0  0  0  0  0  0
  -32.6062  -23.8169  -22.2442 C   0  0  0  0  0  0
  -35.0103  -26.4510  -21.3220 O   0  0  0  0  0  0
  -31.5441  -23.4070  -25.7506 C   0  0  0  0  0  0
  -31.1694  -24.5943  -25.6232 O   0  5  0  0  0  0
  -31.4358  -22.7495  -26.8131 O   0  0  0  0  0  0
  -28.1151  -20.5347  -23.4167 N   0  0  0  0  0  0
  -27.5651  -20.7539  -24.6299 C   0  0  0  0  0  0
  -26.1283  -20.2820  -24.7327 C   0  0  0  0  0  0
  -25.3730  -20.3249  -23.4491 C   0  0  0  0  0  0
  -24.9651  -19.1498  -22.7817 C   0  0  0  0  0  0
  -24.3114  -19.2318  -21.5356 C   0  0  0  0  0  0
  -24.0742  -20.4817  -20.9273 C   0  0  0  0  0  0
  -24.4472  -21.6589  -21.6200 C   0  0  0  0  0  0
  -25.0872  -21.5778  -22.8665 C   0  0  0  0  0  0
  -23.5110  -20.4870  -19.6677 O   0  0  0  0  0  0
  -23.7771  -21.6052  -18.8230 C   0  0  0  0  0  0
  -25.2685  -21.6379  -18.4227 C   0  0  0  0  0  0
  -25.7188  -22.9212  -17.6953 C   0  0  2  0  0  0
  -25.6697  -24.1589  -18.6175 C   0  0  0  0  0  0
  -24.8801  -25.0842  -18.3150 O   0  5  0  0  0  0
  -26.4319  -24.1841  -19.6125 O   0  0  0  0  0  0
  -27.1001  -22.7496  -17.2134 N   0  3  0  0  0  0
  -25.6399  -19.9497  -25.8585 N   0  0  0  0  0  0
  -24.2793  -19.5492  -25.7097 O   0  0  0  0  0  0
  -28.1230  -21.3315  -25.5670 O   0  0  0  0  0  0
  -29.4834  -20.8250  -21.7941 H   0  0  0  0  0  0
  -31.3461  -20.0384  -23.0241 H   0  0  0  0  0  0
  -30.4339  -20.0702  -24.5754 H   0  0  0  0  0  0
  -32.7595  -21.8796  -24.8440 H   0  0  0  0  0  0
  -34.1475  -24.3162  -25.2350 H   0  0  0  0  0  0
  -35.4027  -25.9486  -23.8905 H   0  0  0  0  0  0
  -33.0927  -24.8568  -20.4213 H   0  0  0  0  0  0
  -31.8619  -23.2289  -21.7305 H   0  0  0  0  0  0
  -34.7493  -26.4437  -20.4139 H   0  0  0  0  0  0
  -27.5467  -20.0073  -22.7670 H   0  0  0  0  0  0
  -25.1687  -18.1792  -23.2139 H   0  0  0  0  0  0
  -24.0260  -18.3241  -21.0248 H   0  0  0  0  0  0
  -24.2782  -22.6412  -21.2079 H   0  0  0  0  0  0
  -25.3836  -22.4886  -23.3653 H   0  0  0  0  0  0
  -23.1733  -21.4910  -17.9224 H   0  0  0  0  0  0
  -23.4357  -22.5362  -19.2748 H   0  0  0  0  0  0
  -25.9062  -21.4970  -19.2971 H   0  0  0  0  0  0
  -25.4656  -20.7740  -17.7871 H   0  0  0  0  0  0
  -25.0846  -23.0871  -16.8225 H   0  0  0  0  0  0
  -27.3561  -23.5938  -16.7168 H   0  0  0  0  0  0
  -27.1669  -21.9593  -16.5836 H   0  0  0  0  0  0
  -24.3686  -18.5957  -25.6143 H   0  0  0  0  0  0
  -27.7161  -22.6203  -18.0037 H   0  0  0  0  0  0
  1  2  2  0  0  0
  2  5  1  0  0  0
  2  3  1  0  0  0
  3  4  1  0  0  0
  3 17  1  0  0  0
  3 37  1  0  0  0
  4  5  1  0  0  0
  4 38  1  0  0  0
  4 39  1  0  0  0
  5  6  1  0  0  0
  6  7  1  0  0  0
  6 14  1  0  0  0
  6 40  1  0  0  0
  7 12  1  0  0  0
  7  8  2  0  0  0
  8  9  1  0  0  0
  8 41  1  0  0  0
  9 10  2  0  0  0
  9 42  1  0  0  0
 10 11  1  0  0  0
 10 13  1  0  0  0
 11 12  2  0  0  0
 11 43  1  0  0  0
 12 44  1  0  0  0
 13 45  1  0  0  0
 14 15  1  0  0  0
 14 16  2  0  0  0
 17 18  1  0  0  0
 17 46  1  0  0  0
 18 19  1  0  0  0
 18 36  2  0  0  0
 19 20  1  0  0  0
 19 34  2  3  0  0
 20 25  1  0  0  0
 20 21  2  0  0  0
 21 22  1  0  0  0
 21 47  1  0  0  0
 22 23  2  0  0  0
 22 48  1  0  0  0
 23 24  1  0  0  0
 23 26  1  0  0  0
 24 25  2  0  0  0
 24 49  1  0  0  0
 25 50  1  0  0  0
 26 27  1  0  0  0
 27 28  1  0  0  0
 27 51  1  0  0  0
 27 52  1  0  0  0
 28 29  1  0  0  0
 28 53  1  0  0  0
 28 54  1  0  0  0
 29 30  1  0  0  0
 29 33  1  0  0  0
 29 55  1  0  0  0
 30 31  1  0  0  0
 30 32  2  0  0  0
 33 56  1  0  0  0
 33 57  1  0  0  0
 33 59  1  0  0  0
 34 35  1  0  0  0
 35 58  1  0  0  0
M  CHG  3  15  -1  31  -1  33   1
M  END
> <s_m_entry_id>
27379

> <s_m_entry_name>
data_maestro.29

> <s_m_Source_Path>
C:\Users\olshana1\Git\GramNeg-Accumulation\Gram Negative Permeation - OmpF

> <s_m_Source_File>
data_maestro.csv

> <i_m_Source_File_Index>
29

> <s_m_job_name>
glide-dock_Nicaido_neutral

> <s_i_glide_gridfile>
3POX-grid

> <i_i_glide_lignum>
36

> <i_i_glide_rotatable_bonds>
14

> <r_i_docking_score>
-5.1741537611131

> <r_i_glide_ligand_efficiency>
-0.143726493364253

> <r_i_glide_ligand_efficiency_sa>
-0.474574424260617

> <r_i_glide_ligand_efficiency_ln>
-1.12886056119492

> <r_i_glide_gscore>
-5.1741537611131

> <r_i_glide_lipo>
0

> <r_i_glide_hbond>
-0.717405709210165

> <r_i_glide_metal>
0

> <r_i_glide_rewards>
0.0714566916991242

> <r_i_glide_evdw>
-26.32590675354

> <r_i_glide_ecoul>
-22.3359966278076

> <r_i_glide_erotb>
0.900147327125679

> <r_i_glide_esite>
-0.761657238879591

> <r_i_glide_emodel>
-75.3811126849623

> <r_i_glide_energy>
-48.6619033813477

> <r_i_glide_einternal>
15.5671453475952

> <i_i_glide_confnum>
773

> <i_i_glide_posenum>
70

> <r_i_glide_eff_state_penalty>
0

> <r_glide_res:A132_vdw>
-1.44982348116274

> <r_glide_res:A132_coul>
-41.9066720528708

> <r_glide_res:A132_hbond>
-0.189758046658195

> <r_glide_res:A132_dist>
2.0690772342477

> <r_glide_res:A132_Eint>
-43.5462535806918

> <r_glide_res:A117_vdw>
-4.07510455413104

> <r_glide_res:A117_coul>
8.85714075782966

> <r_glide_res:A117_hbond>
-0.16

> <r_glide_res:A117_dist>
1.81398949526451

> <r_glide_res:A117_Eint>
4.62203620369862

> <r_glide_res:A113_vdw>
-1.75847380414711

> <r_glide_res:A113_coul>
3.21376811952838

> <r_glide_res:A113_hbond>
0

> <r_glide_res:A113_dist>
3.5647573166574

> <r_glide_res:A113_Eint>
1.45529431538128

> <r_glide_res:A82_vdw>
-1.9343783750777

> <r_glide_res:A82_coul>
-49.8898782829847

> <r_glide_res:A82_hbond>
-0.12046830622772

> <r_glide_res:A82_dist>
2.16409410560072

> <r_glide_res:A82_Eint>
-51.9447249642902

> <r_glide_res:A42_vdw>
-2.52485925519541

> <r_glide_res:A42_coul>
-54.1251869853927

> <r_glide_res:A42_hbond>
-0.125630035447775

> <r_glide_res:A42_dist>
2.18692790958917

> <r_glide_res:A42_Eint>
-56.7756762760359

> <r_glide_res:A16_vdw>
-0.612848479965834

> <r_glide_res:A16_coul>
-51.6290942918457

> <r_glide_res:A16_hbond>
-0.0138818922259962

> <r_glide_res:A16_dist>
2.35321347940581

> <r_glide_res:A16_Eint>
-52.2558246640375

> <s_m_source_file>
ligprep_Nicaido_neutral.maegz

> <i_m_source_file_index>
29

> <i_lp_mmshare_version>
58128

> <i_f3d_flags>
0

> <s_lp_Force_Field>
S-OPLS

> <r_lp_Energy>
60.848016

> <b_lp_Chiralities_Consistent>
1

> <s_lp_Variant>
Nocardicin B-1

> <s_epik_input>
W2NIXTFbY0hdYyhbT0hdKVtjSF1bY0hdYzFbQ0BIXShDKD1PKVtPSF0pTjJbQ0gyXVtDQEBIXShDMj1PKVtOSF1DKD1PKS9DKD1OL1tPSF0pYzNbY0hdW2NIXWMoW2NIXVtjSF0zKU9bQ0gyXVtDSDJdW0NAQEhdKFtOSDJdKUMoPU8pW09IXQ==

> <s_epik_cmdline>
J2VwaWtfcHl0aG9uJywgJy1waHQnLCAnMC4wJywgJy1waCcsICc3LjQnLCAnLW50JywgJy1tYScsICc1MDAnLCAnLWltYWUnLCAnPGluZmlsZS5tYWU+JywgJy1vbWFlJywgJzxvdXRmaWxlLm1hZT4n

> <r_lp_tautomer_probability>
1

> <r_epik_Ionization_Penalty>
  0.0116

> <r_epik_Ionization_Penalty_Charging>
  0.0086

> <r_epik_Ionization_Penalty_Neutral>
  0.0030

> <r_epik_State_Penalty>
  0.0000

> <r_epik_Charging_Adjusted_Penalty>
0.0085560600321308

> <i_epik_Tot_Q>
-1

> <i_epik_Tot_abs_Q>
3

> <s_epik_Chemistry_Notes>
This compound has an imine and may undergo hydrolysis.

> <s_m_subgroup_title>
glide-dock_Nicaido_neutral_pv1

> <s_m_subgroupid>
glide-dock_Nicaido_neutral_pv1

> <b_m_subgroup_collapsed>
0

$$$$
Cefacetrile
                    3D
 Schrodinger Suite 2022-2.
 35 36  0  0  1  0            999 V2000
  -32.9527  -16.2737  -26.4870 C   0  0  0  0  0  0
  -32.3919  -17.6703  -26.7079 C   0  0  0  0  0  0
  -32.0104  -18.2681  -25.5662 O   0  0  0  0  0  0
  -31.5316  -19.6014  -25.6272 C   0  0  0  0  0  0
  -30.9238  -20.0888  -24.3156 C   0  0  0  0  0  0
  -29.8369  -20.9090  -24.2664 C   0  0  0  0  0  0
  -29.2372  -21.2885  -23.0531 N   0  0  0  0  0  0
  -29.5441  -20.6431  -21.7909 C   0  0  2  0  0  0
  -28.5586  -21.6324  -21.1365 C   0  0  2  0  0  0
  -28.5796  -22.3740  -22.4981 C   0  0  0  0  0  0
  -28.2754  -23.4678  -22.9345 O   0  0  0  0  0  0
  -29.1271  -22.3736  -20.0133 N   0  0  0  0  0  0
  -28.5229  -23.4225  -19.4371 C   0  0  0  0  0  0
  -29.1344  -23.9620  -18.1431 C   0  0  0  0  0  0
  -28.7060  -25.3396  -17.8410 C   0  0  0  0  0  0
  -28.3699  -26.4264  -17.6130 N   0  0  0  0  0  0
  -27.5147  -23.9496  -19.9128 O   0  0  0  0  0  0
  -31.3542  -20.6533  -21.6158 S   0  0  0  0  0  0
  -31.6689  -19.6123  -23.0675 C   0  0  0  0  0  0
  -29.1783  -21.5081  -25.5524 C   0  0  0  0  0  0
  -29.9691  -21.9495  -26.4138 O   0  5  0  0  0  0
  -27.9295  -21.5500  -25.6082 O   0  0  0  0  0  0
  -32.3277  -18.1644  -27.8362 O   0  0  0  0  0  0
  -32.9031  -15.9981  -25.4332 H   0  0  0  0  0  0
  -32.3740  -15.5466  -27.0563 H   0  0  0  0  0  0
  -33.9914  -16.2257  -26.8114 H   0  0  0  0  0  0
  -30.7953  -19.6572  -26.4274 H   0  0  0  0  0  0
  -32.3580  -20.2619  -25.8915 H   0  0  0  0  0  0
  -29.1681  -19.6180  -21.7721 H   0  0  0  0  0  0
  -27.6071  -21.1541  -20.8984 H   0  0  0  0  0  0
  -29.9379  -21.9698  -19.5404 H   0  0  0  0  0  0
  -30.2208  -23.9540  -18.2145 H   0  0  0  0  0  0
  -28.8520  -23.3192  -17.3093 H   0  0  0  0  0  0
  -31.3814  -18.5830  -22.8485 H   0  0  0  0  0  0
  -32.7432  -19.6175  -23.2531 H   0  0  0  0  0  0
  1  2  1  0  0  0
  1 24  1  0  0  0
  1 25  1  0  0  0
  1 26  1  0  0  0
  2  3  1  0  0  0
  2 23  2  0  0  0
  3  4  1  0  0  0
  4  5  1  0  0  0
  4 27  1  0  0  0
  4 28  1  0  0  0
  5 19  1  0  0  0
  5  6  2  0  0  0
  6  7  1  0  0  0
  6 20  1  0  0  0
  7 10  1  0  0  0
  7  8  1  0  0  0
  8  9  1  0  0  0
  8 18  1  0  0  0
  8 29  1  0  0  0
  9 10  1  0  0  0
  9 12  1  0  0  0
  9 30  1  0  0  0
 10 11  2  0  0  0
 12 13  1  0  0  0
 12 31  1  0  0  0
 13 14  1  0  0  0
 13 17  2  0  0  0
 14 15  1  0  0  0
 14 32  1  0  0  0
 14 33  1  0  0  0
 15 16  3  0  0  0
 18 19  1  0  0  0
 19 34  1  0  0  0
 19 35  1  0  0  0
 20 21  1  0  0  0
 20 22  2  0  0  0
M  CHG  1  21  -1
M  END
> <s_m_entry_id>
27380

> <s_m_entry_name>
data_maestro.1

> <s_m_Source_Path>
C:\Users\olshana1\Git\GramNeg-Accumulation\Gram Negative Permeation - OmpF

> <s_m_Source_File>
data_maestro.csv

> <i_m_Source_File_Index>
1

> <s_m_job_name>
glide-dock_Nicaido_neutral

> <s_i_glide_gridfile>
3POX-grid

> <i_i_glide_lignum>
1

> <i_i_glide_rotatable_bonds>
7

> <r_i_docking_score>
-5.17374643473267

> <r_i_glide_ligand_efficiency>
-0.22494549716229

> <r_i_glide_ligand_efficiency_sa>
-0.639715070977522

> <r_i_glide_ligand_efficiency_ln>
-1.25105880085731

> <r_i_glide_gscore>
-5.17374643473267

> <r_i_glide_lipo>
0

> <r_i_glide_hbond>
-0.997255545474047

> <r_i_glide_metal>
0

> <r_i_glide_rewards>
-1.09924101923502

> <r_i_glide_evdw>
-23.6129608154297

> <r_i_glide_ecoul>
-13.3802299499512

> <r_i_glide_erotb>
0.660867222788296

> <r_i_glide_esite>
-0.550434559547728

> <r_i_glide_emodel>
-62.4729562351971

> <r_i_glide_energy>
-36.9931907653809

> <r_i_glide_einternal>
1.45061957836151

> <i_i_glide_confnum>
18

> <i_i_glide_posenum>
354

> <r_i_glide_eff_state_penalty>
0

> <r_glide_res:A132_vdw>
-1.86757806465343

> <r_glide_res:A132_coul>
-32.0558798497309

> <r_glide_res:A132_hbond>
-0.16

> <r_glide_res:A132_dist>
1.9780967294827

> <r_glide_res:A132_Eint>
-34.0834579143843

> <r_glide_res:A117_vdw>
-1.71765370602579

> <r_glide_res:A117_coul>
25.2858892883464

> <r_glide_res:A117_hbond>
0

> <r_glide_res:A117_dist>
3.53154160182506

> <r_glide_res:A117_Eint>
23.5682355823206

> <r_glide_res:A113_vdw>
-1.49509186379555

> <r_glide_res:A113_coul>
5.31729421051813

> <r_glide_res:A113_hbond>
-0.173832639590214

> <r_glide_res:A113_dist>
1.91203891022175

> <r_glide_res:A113_Eint>
3.64836970713237

> <r_glide_res:A82_vdw>
-1.5484538536348

> <r_glide_res:A82_coul>
-37.7648417572191

> <r_glide_res:A82_hbond>
-0.112454181033054

> <r_glide_res:A82_dist>
2.2136263355542

> <r_glide_res:A82_Eint>
-39.4257497918869

> <r_glide_res:A42_vdw>
0.207955350186603

> <r_glide_res:A42_coul>
-52.1609147895536

> <r_glide_res:A42_hbond>
-0.350968724850779

> <r_glide_res:A42_dist>
1.89600071319944

> <r_glide_res:A42_Eint>
-52.3039281642177

> <r_glide_res:A16_vdw>
-1.03200710522608

> <r_glide_res:A16_coul>
-47.9553537457921

> <r_glide_res:A16_hbond>
-0.2

> <r_glide_res:A16_dist>
1.90690079514271

> <r_glide_res:A16_Eint>
-49.1873608510182

> <s_m_source_file>
ligprep_Nicaido_neutral.maegz

> <i_m_source_file_index>
1

> <i_lp_mmshare_version>
58128

> <i_f3d_flags>
0

> <s_lp_Force_Field>
S-OPLS

> <r_lp_Energy>
24.277434

> <b_lp_Chiralities_Consistent>
1

> <s_lp_Variant>
Cefacetrile-1

> <s_epik_input>
W0NIM11DKD1PKU9bQ0gyXUMoPUMxQyg9TylbT0hdKVtDSDJdU1tDQEhdKE4xMilbQ0BIXShDMj1PKVtOSF1DKD1PKVtDSDJdQyNO

> <s_epik_cmdline>
J2VwaWtfcHl0aG9uJywgJy1waHQnLCAnMC4wJywgJy1waCcsICc3LjQnLCAnLW50JywgJy1tYScsICc1MDAnLCAnLWltYWUnLCAnPGluZmlsZS5tYWU+JywgJy1vbWFlJywgJzxvdXRmaWxlLm1hZT4n

> <r_lp_tautomer_probability>
1

> <r_epik_Ionization_Penalty>
  0.0000

> <r_epik_Ionization_Penalty_Charging>
  0.0000

> <r_epik_Ionization_Penalty_Neutral>
  0.0000

> <r_epik_State_Penalty>
  0.0000

> <r_epik_Charging_Adjusted_Penalty>
5.96156609429709e-06

> <i_epik_Tot_Q>
-1

> <i_epik_Tot_abs_Q>
1

> <s_epik_Chemistry_Notes>
This compound has an ester and may undergo hydrolysis at high or low pH. This compound contains an acetal/aminal-like group ( X-CH(R)-Y where X, Y are N, S, or O) that may be acid/base labile, releasing an aldehyde.

> <s_m_subgroup_title>
glide-dock_Nicaido_neutral_pv1

> <s_m_subgroupid>
glide-dock_Nicaido_neutral_pv1

> <b_m_subgroup_collapsed>
0

$$$$
Aztreonam
                    3D
 Schrodinger Suite 2022-2.
 43 44  0  0  1  0            999 V2000
  -30.1065  -22.0021  -21.9439 C   0  0  0  0  0  0
  -29.7035  -20.8992  -22.9346 C   0  0  1  0  0  0
  -28.2162  -20.4935  -23.1192 C   0  0  2  0  0  0
  -28.3160  -21.1929  -24.4964 C   0  0  0  0  0  0
  -29.6669  -21.3497  -24.3222 N   0  0  0  0  0  0
  -30.8792  -22.1715  -25.1114 S   0  0  0  0  0  0
  -30.3687  -23.5495  -25.2098 O   0  0  0  0  0  0
  -30.9499  -21.4974  -26.4134 O   0  5  0  0  0  0
  -32.0872  -22.0176  -24.2906 O   0  0  0  0  0  0
  -27.5690  -21.5494  -25.3828 O   0  0  0  0  0  0
  -27.3564  -21.2026  -22.1715 N   0  0  0  0  0  0
  -26.0868  -21.6020  -22.3809 C   0  0  0  0  0  0
  -25.5904  -22.6533  -21.4047 C   0  0  0  0  0  0
  -26.4998  -22.9330  -20.2639 C   0  0  0  0  0  0
  -26.3948  -22.2385  -19.0832 C   0  0  0  0  0  0
  -27.7251  -22.5803  -18.0133 S   0  0  0  0  0  0
  -28.3632  -23.6857  -19.2134 C   0  0  0  0  0  0
  -29.5685  -24.3412  -19.0339 N   0  0  0  0  0  0
  -27.6045  -23.7955  -20.3054 N   0  0  0  0  0  0
  -24.4838  -23.2413  -21.6151 N   0  0  0  0  0  0
  -24.1568  -24.2059  -20.6430 O   0  0  0  0  0  0
  -22.8293  -24.7115  -20.8689 C   0  0  0  0  0  0
  -22.7823  -25.6246  -22.1280 C   0  0  0  0  0  0
  -23.1710  -26.8101  -22.0112 O   0  5  0  0  0  0
  -22.3689  -25.1495  -23.2125 O   0  0  0  0  0  0
  -21.7773  -23.5748  -20.9599 C   0  0  0  0  0  0
  -22.5374  -25.5548  -19.6142 C   0  0  0  0  0  0
  -25.3918  -21.2180  -23.3216 O   0  0  0  0  0  0
  -29.8961  -21.6987  -20.9165 H   0  0  0  0  0  0
  -31.1747  -22.2131  -21.9804 H   0  0  0  0  0  0
  -29.5819  -22.9384  -22.1326 H   0  0  0  0  0  0
  -30.3429  -20.0179  -22.8549 H   0  0  0  0  0  0
  -28.0595  -19.4142  -23.1497 H   0  0  0  0  0  0
  -27.8231  -21.5411  -21.3420 H   0  0  0  0  0  0
  -25.6550  -21.5050  -18.7964 H   0  0  0  0  0  0
  -30.0632  -24.5838  -19.8777 H   0  0  0  0  0  0
  -30.1788  -23.8124  -18.4133 H   0  0  0  0  0  0
  -20.7652  -23.9791  -20.9979 H   0  0  0  0  0  0
  -21.9044  -22.9518  -21.8464 H   0  0  0  0  0  0
  -21.8364  -22.9182  -20.0918 H   0  0  0  0  0  0
  -21.5532  -26.0203  -19.6672 H   0  0  0  0  0  0
  -22.5681  -24.9403  -18.7141 H   0  0  0  0  0  0
  -23.2713  -26.3494  -19.4905 H   0  0  0  0  0  0
  1  2  1  0  0  0
  1 29  1  0  0  0
  1 30  1  0  0  0
  1 31  1  0  0  0
  2  5  1  0  0  0
  2  3  1  0  0  0
  2 32  1  0  0  0
  3  4  1  0  0  0
  3 11  1  0  0  0
  3 33  1  0  0  0
  4  5  1  0  0  0
  4 10  2  0  0  0
  5  6  1  0  0  0
  6  7  2  0  0  0
  6  8  1  0  0  0
  6  9  2  0  0  0
 11 12  1  0  0  0
 11 34  1  0  0  0
 12 13  1  0  0  0
 12 28  2  0  0  0
 13 14  1  0  0  0
 13 20  2  3  0  0
 14 19  1  0  0  0
 14 15  2  0  0  0
 15 16  1  0  0  0
 15 35  1  0  0  0
 16 17  1  0  0  0
 17 18  1  0  0  0
 17 19  2  0  0  0
 18 36  1  0  0  0
 18 37  1  0  0  0
 20 21  1  0  0  0
 21 22  1  0  0  0
 22 23  1  0  0  0
 22 26  1  0  0  0
 22 27  1  0  0  0
 23 24  1  0  0  0
 23 25  2  0  0  0
 26 38  1  0  0  0
 26 39  1  0  0  0
 26 40  1  0  0  0
 27 41  1  0  0  0
 27 42  1  0  0  0
 27 43  1  0  0  0
M  CHG  2   8  -1  24  -1
M  END
> <s_m_entry_id>
27381

> <s_m_entry_name>
data_maestro.21

> <s_m_Source_Path>
C:\Users\olshana1\Git\GramNeg-Accumulation\Gram Negative Permeation - OmpF

> <s_m_Source_File>
data_maestro.csv

> <i_m_Source_File_Index>
21

> <s_m_job_name>
glide-dock_Nicaido_neutral

> <s_i_glide_gridfile>
3POX-grid

> <i_i_glide_lignum>
26

> <i_i_glide_rotatable_bonds>
8

> <r_i_docking_score>
-5.17321245612228

> <r_i_glide_ligand_efficiency>
-0.184757587718653

> <r_i_glide_ligand_efficiency_sa>
-0.561032852713653

> <r_i_glide_ligand_efficiency_ln>
-1.19412932699086

> <r_i_glide_gscore>
-5.17321245612228

> <r_i_glide_lipo>
0

> <r_i_glide_hbond>
-0.918649083990508

> <r_i_glide_metal>
0

> <r_i_glide_rewards>
-0.439414122609473

> <r_i_glide_evdw>
-19.4724426269531

> <r_i_glide_ecoul>
-17.772439956665

> <r_i_glide_erotb>
0.635830109179744

> <r_i_glide_esite>
-0.811491233854629

> <r_i_glide_emodel>
-66.1433461732527

> <r_i_glide_energy>
-37.2448825836182

> <r_i_glide_einternal>
5.59511184692383

> <i_i_glide_confnum>
80

> <i_i_glide_posenum>
266

> <r_i_glide_eff_state_penalty>
0

> <r_glide_res:A132_vdw>
-1.86703044554777

> <r_glide_res:A132_coul>
-66.2765431718071

> <r_glide_res:A132_hbond>
-0.300053942059834

> <r_glide_res:A132_dist>
2.01234362505118

> <r_glide_res:A132_Eint>
-68.4436275594147

> <r_glide_res:A117_vdw>
-1.66507480343166

> <r_glide_res:A117_coul>
39.4915165593438

> <r_glide_res:A117_hbond>
0

> <r_glide_res:A117_dist>
2.84171467474435

> <r_glide_res:A117_Eint>
37.8264417559122

> <r_glide_res:A113_vdw>
-2.55700393994375

> <r_glide_res:A113_coul>
26.7802502839135

> <r_glide_res:A113_hbond>
-0.137385423394252

> <r_glide_res:A113_dist>
2.12089968367636

> <r_glide_res:A113_Eint>
24.0858609205755

> <r_glide_res:A82_vdw>
-2.50372072724809

> <r_glide_res:A82_coul>
-62.60214954179

> <r_glide_res:A82_hbond>
0

> <r_glide_res:A82_dist>
2.84300617614504

> <r_glide_res:A82_Eint>
-65.105870269038

> <r_glide_res:A42_vdw>
0.0797947848880639

> <r_glide_res:A42_coul>
-71.8601983574628

> <r_glide_res:A42_hbond>
-0.16

> <r_glide_res:A42_dist>
1.80041305096587

> <r_glide_res:A42_Eint>
-71.9404035725747

> <r_glide_res:A16_vdw>
1.95774525734592

> <r_glide_res:A16_coul>
-63.7924468967651

> <r_glide_res:A16_hbond>
-0.121209718536422

> <r_glide_res:A16_dist>
1.8590888022925

> <r_glide_res:A16_Eint>
-61.9559113579556

> <s_m_source_file>
ligprep_Nicaido_neutral.maegz

> <i_m_source_file_index>
21

> <i_lp_mmshare_version>
58128

> <i_f3d_flags>
0

> <s_lp_Force_Field>
S-OPLS

> <r_lp_Energy>
55.612973

> <b_lp_Chiralities_Consistent>
1

> <s_lp_Variant>
Aztreonam-1

> <s_epik_input>
Tz1TKD1PKShbT0hdKU4xQyg9TylbQ0BASF0oW0NAQEhdMVtDSDNdKVtOSF1DKD1PKS9DKGMyW2NIXXNjKG4yKVtOSDJdKT1OL09DKFtDSDNdKShbQ0gzXSlDKD1PKVtPSF0=

> <s_epik_cmdline>
J2VwaWtfcHl0aG9uJywgJy1waHQnLCAnMC4wJywgJy1waCcsICc3LjQnLCAnLW50JywgJy1tYScsICc1MDAnLCAnLWltYWUnLCAnPGluZmlsZS5tYWU+JywgJy1vbWFlJywgJzxvdXRmaWxlLm1hZT4n

> <r_lp_tautomer_probability>
1

> <r_epik_Ionization_Penalty>
  0.0004

> <r_epik_Ionization_Penalty_Charging>
  0.0000

> <r_epik_Ionization_Penalty_Neutral>
  0.0004

> <r_epik_State_Penalty>
  0.0000

> <r_epik_Charging_Adjusted_Penalty>
4.45674509427693e-05

> <i_epik_Tot_Q>
-2

> <i_epik_Tot_abs_Q>
2

> <s_epik_Chemistry_Notes>
This compound has an imine and may undergo hydrolysis.

> <s_m_subgroup_title>
glide-dock_Nicaido_neutral_pv1

> <s_m_subgroupid>
glide-dock_Nicaido_neutral_pv1

> <b_m_subgroup_collapsed>
0

$$$$
BL-S217
                    3D
 Schrodinger Suite 2022-2.
 48 50  0  0  1  0            999 V2000
  -28.5966  -23.3689  -22.8300 O   0  0  0  0  0  0
  -29.5117  -22.7087  -22.3776 C   0  0  0  0  0  0
  -30.1116  -22.3868  -20.9949 C   0  0  2  0  0  0
  -30.7675  -21.1868  -21.7048 C   0  0  1  0  0  0
  -30.4842  -21.8925  -22.9404 N   0  0  0  0  0  0
  -30.9949  -21.5042  -24.1949 C   0  0  0  0  0  0
  -30.4200  -22.3171  -25.3938 C   0  0  0  0  0  0
  -30.0459  -21.6935  -26.4133 O   0  5  0  0  0  0
  -30.3324  -23.5495  -25.2135 O   0  0  0  0  0  0
  -32.0135  -20.6115  -24.3291 C   0  0  0  0  0  0
  -32.6767  -19.9142  -23.1469 C   0  0  0  0  0  0
  -32.5511  -20.8629  -21.6142 S   0  0  0  0  0  0
  -32.6230  -20.2042  -25.6634 C   0  0  0  0  0  0
  -33.7381  -21.0296  -25.9678 O   0  0  0  0  0  0
  -34.1177  -21.2211  -27.2401 C   0  0  0  0  0  0
  -35.3428  -22.1169  -27.3512 C   0  0  0  0  0  0
  -33.5690  -20.7589  -28.2412 O   0  0  0  0  0  0
  -29.1450  -21.9331  -20.0135 N   0  0  0  0  0  0
  -28.1803  -22.6679  -19.4457 C   0  0  0  0  0  0
  -27.4538  -22.0104  -18.2707 C   0  0  0  0  0  0
  -25.6640  -21.8362  -18.5258 S   0  0  0  0  0  0
  -25.4005  -20.4375  -19.5732 C   0  0  0  0  0  0
  -24.6166  -19.3610  -19.1129 C   0  0  0  0  0  0
  -24.3164  -18.3012  -19.9945 C   0  0  0  0  0  0
  -24.7733  -18.3166  -21.2719 N   0  3  0  0  0  0
  -24.3693  -17.2358  -22.1861 C   0  0  0  0  0  0
  -25.5688  -19.3179  -21.7263 C   0  0  0  0  0  0
  -25.8989  -20.4085  -20.8923 C   0  0  0  0  0  0
  -27.8780  -23.8056  -19.8204 O   0  0  0  0  0  0
  -30.8369  -23.1062  -20.6114 H   0  0  0  0  0  0
  -30.1945  -20.2573  -21.6422 H   0  0  0  0  0  0
  -32.2260  -18.9310  -23.0095 H   0  0  0  0  0  0
  -33.7369  -19.7610  -23.3509 H   0  0  0  0  0  0
  -32.9490  -19.1648  -25.6082 H   0  0  0  0  0  0
  -31.8798  -20.2380  -26.4561 H   0  0  0  0  0  0
  -35.6859  -22.1694  -28.3843 H   0  0  0  0  0  0
  -35.1055  -23.1249  -27.0122 H   0  0  0  0  0  0
  -36.1538  -21.7257  -26.7378 H   0  0  0  0  0  0
  -29.3949  -21.0595  -19.5558 H   0  0  0  0  0  0
  -27.6137  -22.6272  -17.3853 H   0  0  0  0  0  0
  -27.8774  -21.0296  -18.0444 H   0  0  0  0  0  0
  -24.2335  -19.3568  -18.1024 H   0  0  0  0  0  0
  -23.7030  -17.4581  -19.7122 H   0  0  0  0  0  0
  -23.3224  -16.9853  -22.0105 H   0  0  0  0  0  0
  -24.4842  -17.5736  -23.2133 H   0  0  0  0  0  0
  -25.0033  -16.3677  -22.0139 H   0  0  0  0  0  0
  -25.9071  -19.2371  -22.7498 H   0  0  0  0  0  0
  -26.5026  -21.2182  -21.2758 H   0  0  0  0  0  0
  1  2  2  0  0  0
  2  5  1  0  0  0
  2  3  1  0  0  0
  3  4  1  0  0  0
  3 18  1  0  0  0
  3 30  1  0  0  0
  4 12  1  0  0  0
  4  5  1  0  0  0
  4 31  1  0  0  0
  5  6  1  0  0  0
  6  7  1  0  0  0
  6 10  2  0  0  0
  7  8  1  0  0  0
  7  9  2  0  0  0
 10 11  1  0  0  0
 10 13  1  0  0  0
 11 12  1  0  0  0
 11 32  1  0  0  0
 11 33  1  0  0  0
 13 14  1  0  0  0
 13 34  1  0  0  0
 13 35  1  0  0  0
 14 15  1  0  0  0
 15 16  1  0  0  0
 15 17  2  0  0  0
 16 36  1  0  0  0
 16 37  1  0  0  0
 16 38  1  0  0  0
 18 19  1  0  0  0
 18 39  1  0  0  0
 19 20  1  0  0  0
 19 29  2  0  0  0
 20 21  1  0  0  0
 20 40  1  0  0  0
 20 41  1  0  0  0
 21 22  1  0  0  0
 22 28  1  0  0  0
 22 23  2  0  0  0
 23 24  1  0  0  0
 23 42  1  0  0  0
 24 25  2  0  0  0
 24 43  1  0  0  0
 25 26  1  0  0  0
 25 27  1  0  0  0
 26 44  1  0  0  0
 26 45  1  0  0  0
 26 46  1  0  0  0
 27 28  2  0  0  0
 27 47  1  0  0  0
 28 48  1  0  0  0
M  CHG  2   8  -1  25   1
M  END
> <s_m_entry_id>
27382

> <s_m_entry_name>
data_maestro.17

> <s_m_Source_Path>
C:\Users\olshana1\Git\GramNeg-Accumulation\Gram Negative Permeation - OmpF

> <s_m_Source_File>
data_maestro.csv

> <i_m_Source_File_Index>
17

> <s_m_job_name>
glide-dock_Nicaido_neutral

> <s_i_glide_gridfile>
3POX-grid

> <i_i_glide_lignum>
22

> <i_i_glide_rotatable_bonds>
9

> <r_i_docking_score>
-5.17170046196842

> <r_i_glide_ligand_efficiency>
-0.178334498688566

> <r_i_glide_ligand_efficiency_sa>
-0.547900080306152

> <r_i_glide_ligand_efficiency_ln>
-1.18418826278238

> <r_i_glide_gscore>
-5.17170046196842

> <r_i_glide_lipo>
-0.0403886512381569

> <r_i_glide_hbond>
-0.92494783164692

> <r_i_glide_metal>
0

> <r_i_glide_rewards>
-0.422067642531129

> <r_i_glide_evdw>
-24.5302982330322

> <r_i_glide_ecoul>
-18.5056343078613

> <r_i_glide_erotb>
0.729326637690335

> <r_i_glide_esite>
-0.511262916411738

> <r_i_glide_emodel>
-73.9433399010766

> <r_i_glide_energy>
-43.0359325408936

> <r_i_glide_einternal>
4.17918825149536

> <i_i_glide_confnum>
59

> <i_i_glide_posenum>
236

> <r_i_glide_eff_state_penalty>
0

> <r_glide_res:A132_vdw>
-1.49690098105932

> <r_glide_res:A132_coul>
-14.8223804234524

> <r_glide_res:A132_hbond>
-0.16

> <r_glide_res:A132_dist>
2.04092862189759

> <r_glide_res:A132_Eint>
-16.4792814045118

> <r_glide_res:A117_vdw>
-2.79990330491719

> <r_glide_res:A117_coul>
-16.8037413804871

> <r_glide_res:A117_hbond>
0

> <r_glide_res:A117_dist>
2.28390079184549

> <r_glide_res:A117_Eint>
-19.6036446854043

> <r_glide_res:A113_vdw>
-2.65445589266601

> <r_glide_res:A113_coul>
-12.7869476537001

> <r_glide_res:A113_hbond>
-0.151914368311335

> <r_glide_res:A113_dist>
2.10445720454865

> <r_glide_res:A113_Eint>
-15.5933179146774

> <r_glide_res:A82_vdw>
-1.96281067687597

> <r_glide_res:A82_coul>
-23.6986497517827

> <r_glide_res:A82_hbond>
-0.00189794074953263

> <r_glide_res:A82_dist>
2.49486075703418

> <r_glide_res:A82_Eint>
-25.6633583694082

> <r_glide_res:A42_vdw>
0.34905887558204

> <r_glide_res:A42_coul>
-29.5701562634265

> <r_glide_res:A42_hbond>
-0.251135522586052

> <r_glide_res:A42_dist>
1.88512138857213

> <r_glide_res:A42_Eint>
-29.4722329104305

> <r_glide_res:A16_vdw>
-0.102859387703103

> <r_glide_res:A16_coul>
-36.2213899302894

> <r_glide_res:A16_hbond>
-0.36

> <r_glide_res:A16_dist>
1.80441265348132

> <r_glide_res:A16_Eint>
-36.6842493179925

> <s_m_source_file>
ligprep_Nicaido_neutral.maegz

> <i_m_source_file_index>
17

> <i_lp_mmshare_version>
58128

> <i_f3d_flags>
0

> <s_lp_Force_Field>
S-OPLS

> <r_lp_Energy>
45.233938

> <b_lp_Chiralities_Consistent>
1

> <s_lp_Variant>
BL-S217-1

> <s_epik_input>
W0NIM11DKD1PKU9bQ0gyXUMoW0NIMl1TMSk9QyhDKD1PKVtPSF0pTihbQ0BASF0xMilDKD1PKVtDQEhdMltOSF1DKD1PKVtDSDJdU2MzW2NIXVtjSF1bbitdKFtDSDNdKVtjSF1bY0hdMw==

> <s_epik_cmdline>
J2VwaWtfcHl0aG9uJywgJy1waHQnLCAnMC4wJywgJy1waCcsICc3LjQnLCAnLW50JywgJy1tYScsICc1MDAnLCAnLWltYWUnLCAnPGluZmlsZS5tYWU+JywgJy1vbWFlJywgJzxvdXRmaWxlLm1hZT4n

> <r_lp_tautomer_probability>
1

> <r_epik_Ionization_Penalty>
  0.0000

> <r_epik_Ionization_Penalty_Charging>
  0.0000

> <r_epik_Ionization_Penalty_Neutral>
  0.0000

> <r_epik_State_Penalty>
  0.0000

> <r_epik_Charging_Adjusted_Penalty>
6.14912740637116e-06

> <i_epik_Tot_Q>
0

> <i_epik_Tot_abs_Q>
2

> <s_epik_Chemistry_Notes>
This compound has an ester and may undergo hydrolysis at high or low pH. This compound contains an acetal/aminal-like group ( X-CH(R)-Y where X, Y are N, S, or O) that may be acid/base labile, releasing an aldehyde.

> <s_m_subgroup_title>
glide-dock_Nicaido_neutral_pv1

> <s_m_subgroupid>
glide-dock_Nicaido_neutral_pv1

> <b_m_subgroup_collapsed>
0

$$$$
Ceftazidime
                    3D
 Schrodinger Suite 2022-2.
 58 61  0  0  1  0            999 V2000
  -22.4692  -23.7066  -22.7951 C   0  0  0  0  0  0
  -23.9464  -23.9939  -23.1800 C   0  0  0  0  0  0
  -24.4898  -22.8880  -24.1095 C   0  0  0  0  0  0
  -23.9690  -25.3722  -23.8770 C   0  0  0  0  0  0
  -23.5829  -26.3494  -23.1996 O   0  5  0  0  0  0
  -24.3687  -25.4737  -25.0590 O   0  0  0  0  0  0
  -24.8582  -24.0774  -22.0723 O   0  0  0  0  0  0
  -24.4696  -23.2358  -21.0095 N   0  0  0  0  0  0
  -25.4106  -22.9610  -20.1962 C   0  0  0  0  0  0
  -26.8755  -23.2566  -20.3976 C   0  0  0  0  0  0
  -27.3374  -22.7048  -21.5235 N   0  0  0  0  0  0
  -28.7262  -22.6924  -21.9589 C   0  0  1  0  0  0
  -29.3608  -21.2958  -21.8714 C   0  0  2  0  0  0
  -29.4246  -21.2849  -23.3258 N   0  0  0  0  0  0
  -29.8592  -20.1632  -24.0810 C   0  0  0  0  0  0
  -30.1895  -20.4544  -25.6214 C   0  0  0  0  0  0
  -30.2929  -21.6453  -25.9968 O   0  5  0  0  0  0
  -30.3694  -19.4825  -26.3841 O   0  0  0  0  0  0
  -29.9752  -18.9288  -23.4889 C   0  0  0  0  0  0
  -30.4305  -17.6378  -24.1870 C   0  0  0  0  0  0
  -31.8798  -17.6052  -24.4946 N   0  3  0  0  0  0
  -32.2847  -17.1648  -25.7154 C   0  0  0  0  0  0
  -33.6554  -17.0647  -26.0317 C   0  0  0  0  0  0
  -34.6109  -17.4244  -25.0609 C   0  0  0  0  0  0
  -34.1713  -17.8731  -23.8002 C   0  0  0  0  0  0
  -32.7876  -17.9512  -23.5438 C   0  0  0  0  0  0
  -29.6154  -18.6581  -22.0191 C   0  0  0  0  0  0
  -28.4455  -19.8367  -21.3240 S   0  0  0  0  0  0
  -28.8159  -22.5247  -23.4841 C   0  0  0  0  0  0
  -28.4134  -23.1493  -24.4419 O   0  0  0  0  0  0
  -27.5404  -23.9495  -19.6272 O   0  0  0  0  0  0
  -25.1095  -22.2854  -18.9244 C   0  0  0  0  0  0
  -25.3419  -20.9401  -18.7581 C   0  0  0  0  0  0
  -24.7733  -20.3756  -17.2138 S   0  0  0  0  0  0
  -24.2976  -22.0196  -16.8310 C   0  0  0  0  0  0
  -23.7403  -22.3496  -15.6135 N   0  0  0  0  0  0
  -24.5151  -22.8923  -17.8126 N   0  0  0  0  0  0
  -21.8129  -23.7898  -23.6621 H   0  0  0  0  0  0
  -22.3388  -22.6958  -22.4072 H   0  0  0  0  0  0
  -22.1080  -24.4018  -22.0356 H   0  0  0  0  0  0
  -23.8860  -22.7899  -25.0122 H   0  0  0  0  0  0
  -25.5165  -23.0942  -24.4125 H   0  0  0  0  0  0
  -24.4867  -21.9201  -23.6086 H   0  0  0  0  0  0
  -26.6865  -22.1669  -22.0797 H   0  0  0  0  0  0
  -29.3575  -23.4742  -21.5339 H   0  0  0  0  0  0
  -30.3593  -21.3157  -21.4288 H   0  0  0  0  0  0
  -30.2455  -16.7578  -23.5715 H   0  0  0  0  0  0
  -29.8588  -17.4802  -25.1013 H   0  0  0  0  0  0
  -31.5059  -16.8892  -26.4122 H   0  0  0  0  0  0
  -33.9652  -16.7084  -27.0038 H   0  0  0  0  0  0
  -35.6674  -17.3505  -25.2763 H   0  0  0  0  0  0
  -34.8835  -18.1417  -23.0329 H   0  0  0  0  0  0
  -32.3973  -18.2600  -22.5863 H   0  0  0  0  0  0
  -29.1692  -17.6746  -21.8917 H   0  0  0  0  0  0
  -30.5198  -18.6685  -21.4114 H   0  0  0  0  0  0
  -25.7864  -20.2390  -19.4503 H   0  0  0  0  0  0
  -23.8297  -23.3117  -15.3305 H   0  0  0  0  0  0
  -23.8762  -21.6914  -14.8543 H   0  0  0  0  0  0
  1  2  1  0  0  0
  1 38  1  0  0  0
  1 39  1  0  0  0
  1 40  1  0  0  0
  2  3  1  0  0  0
  2  4  1  0  0  0
  2  7  1  0  0  0
  3 41  1  0  0  0
  3 42  1  0  0  0
  3 43  1  0  0  0
  4  5  1  0  0  0
  4  6  2  0  0  0
  7  8  1  0  0  0
  8  9  2  3  0  0
  9 10  1  0  0  0
  9 32  1  0  0  0
 10 11  1  0  0  0
 10 31  2  0  0  0
 11 12  1  0  0  0
 11 44  1  0  0  0
 12 29  1  0  0  0
 12 13  1  0  0  0
 12 45  1  0  0  0
 13 28  1  0  0  0
 13 14  1  0  0  0
 13 46  1  0  0  0
 14 15  1  0  0  0
 14 29  1  0  0  0
 15 16  1  0  0  0
 15 19  2  0  0  0
 16 17  1  0  0  0
 16 18  2  0  0  0
 19 20  1  0  0  0
 19 27  1  0  0  0
 20 21  1  0  0  0
 20 47  1  0  0  0
 20 48  1  0  0  0
 21 26  1  0  0  0
 21 22  2  0  0  0
 22 23  1  0  0  0
 22 49  1  0  0  0
 23 24  2  0  0  0
 23 50  1  0  0  0
 24 25  1  0  0  0
 24 51  1  0  0  0
 25 26  2  0  0  0
 25 52  1  0  0  0
 26 53  1  0  0  0
 27 28  1  0  0  0
 27 54  1  0  0  0
 27 55  1  0  0  0
 29 30  2  0  0  0
 32 37  1  0  0  0
 32 33  2  0  0  0
 33 34  1  0  0  0
 33 56  1  0  0  0
 34 35  1  0  0  0
 35 36  1  0  0  0
 35 37  2  0  0  0
 36 57  1  0  0  0
 36 58  1  0  0  0
M  CHG  3   5  -1  17  -1  21   1
M  END
> <s_m_entry_id>
27383

> <s_m_entry_name>
data_maestro.30

> <s_m_Source_Path>
C:\Users\olshana1\Git\GramNeg-Accumulation\Gram Negative Permeation - OmpF

> <s_m_Source_File>
data_maestro.csv

> <i_m_Source_File_Index>
30

> <s_m_job_name>
glide-dock_Nicaido_neutral

> <s_i_glide_gridfile>
3POX-grid

> <i_i_glide_lignum>
39

> <i_i_glide_rotatable_bonds>
10

> <r_i_docking_score>
-5.16318662226958

> <r_i_glide_ligand_efficiency>
-0.139545584385664

> <r_i_glide_ligand_efficiency_sa>
-0.464996845030926

> <r_i_glide_ligand_efficiency_ln>
-1.11977413610225

> <r_i_glide_gscore>
-5.16318662226958

> <r_i_glide_lipo>
0

> <r_i_glide_hbond>
-0.981024874951911

> <r_i_glide_metal>
0

> <r_i_glide_rewards>
0.0406138913036512

> <r_i_glide_evdw>
-36.4230422973633

> <r_i_glide_ecoul>
-14.4255094528198

> <r_i_glide_erotb>
0.556495996469625

> <r_i_glide_esite>
-0.794293102299805

> <r_i_glide_emodel>
-81.6053420066423

> <r_i_glide_energy>
-50.8485517501831

> <r_i_glide_einternal>
12.7945947647095

> <i_i_glide_confnum>
44

> <i_i_glide_posenum>
378

> <r_i_glide_eff_state_penalty>
0

> <r_glide_res:A132_vdw>
-3.03014220151566

> <r_glide_res:A132_coul>
-46.6249507682013

> <r_glide_res:A132_hbond>
-0.16

> <r_glide_res:A132_dist>
2.07193470285144

> <r_glide_res:A132_Eint>
-49.8150929697169

> <r_glide_res:A117_vdw>
-3.63501312246145

> <r_glide_res:A117_coul>
17.177491944662

> <r_glide_res:A117_hbond>
0

> <r_glide_res:A117_dist>
2.22048818481489

> <r_glide_res:A117_Eint>
13.5424788222006

> <r_glide_res:A113_vdw>
-3.05009817152112

> <r_glide_res:A113_coul>
9.41112729892678

> <r_glide_res:A113_hbond>
0

> <r_glide_res:A113_dist>
3.03078034809348

> <r_glide_res:A113_Eint>
6.36102912740566

> <r_glide_res:A82_vdw>
-2.47923459254381

> <r_glide_res:A82_coul>
-53.5262777173855

> <r_glide_res:A82_hbond>
-0.175555868486757

> <r_glide_res:A82_dist>
1.9962308294453

> <r_glide_res:A82_Eint>
-56.1810681784161

> <r_glide_res:A42_vdw>
-2.6199620325642

> <r_glide_res:A42_coul>
-54.0376057780959

> <r_glide_res:A42_hbond>
-0.11804537043179

> <r_glide_res:A42_dist>
2.19136385470335

> <r_glide_res:A42_Eint>
-56.7756131810919

> <r_glide_res:A16_vdw>
-0.866212478460651

> <r_glide_res:A16_coul>
-41.6451281694991

> <r_glide_res:A16_hbond>
-0.179171895987212

> <r_glide_res:A16_dist>
2.17732589818305

> <r_glide_res:A16_Eint>
-42.690512543947

> <s_m_source_file>
ligprep_Nicaido_neutral.maegz

> <i_m_source_file_index>
30

> <i_lp_mmshare_version>
58128

> <i_f3d_flags>
0

> <s_lp_Force_Field>
S-OPLS

> <r_lp_Energy>
82.572273

> <b_lp_Chiralities_Consistent>
1

> <s_lp_Variant>
Ceftazidime-2

> <s_epik_input>
W09IXUMoPU8pQyhbQ0gzXSkoW0NIM10pTy9OPUMoYzFbY0hdc2MobjEpW05IMl0pL0MoPU8pW05IXVtDQEBIXTJDKD1PKU4oW0NAQEhdMjMpQyhDKD1PKVtPSF0pPUMoW0NIMl1TMylbQ0gyXVtuK100W2NIXVtjSF1bY0hdW2NIXVtjSF00

> <s_epik_cmdline>
J2VwaWtfcHl0aG9uJywgJy1waHQnLCAnMC4wJywgJy1waCcsICc3LjQnLCAnLW50JywgJy1tYScsICc1MDAnLCAnLWltYWUnLCAnPGluZmlsZS5tYWU+JywgJy1vbWFlJywgJzxvdXRmaWxlLm1hZT4n

> <r_lp_tautomer_probability>
1

> <r_epik_Ionization_Penalty>
  0.0005

> <r_epik_Ionization_Penalty_Charging>
  0.0001

> <r_epik_Ionization_Penalty_Neutral>
  0.0005

> <r_epik_State_Penalty>
  0.0000

> <r_epik_Charging_Adjusted_Penalty>
5.84857251211915e-05

> <i_epik_Tot_Q>
-1

> <i_epik_Tot_abs_Q>
3

> <s_epik_Chemistry_Notes>
This compound has an imine and may undergo hydrolysis. This compound contains an acetal/aminal-like group ( X-CH(R)-Y where X, Y are N, S, or O) that may be acid/base labile, releasing an aldehyde.

> <s_m_subgroup_title>
glide-dock_Nicaido_neutral_pv1

> <s_m_subgroupid>
glide-dock_Nicaido_neutral_pv1

> <b_m_subgroup_collapsed>
0

$$$$
Cefuroxime
                    3D
 Schrodinger Suite 2022-2.
 44 46  0  0  1  0            999 V2000
  -35.3696  -19.0979  -29.1922 C   0  0  0  0  0  0
  -34.7529  -18.1707  -28.3198 O   0  0  0  0  0  0
  -33.5802  -18.7650  -27.8343 N   0  0  0  0  0  0
  -33.1158  -18.2003  -26.7897 C   0  0  0  0  0  0
  -33.7082  -17.0123  -26.1551 C   0  0  0  0  0  0
  -34.2373  -15.8342  -26.6148 C   0  0  0  0  0  0
  -34.7682  -15.1495  -25.4865 C   0  0  0  0  0  0
  -34.5092  -15.9489  -24.4113 C   0  0  0  0  0  0
  -33.8751  -17.0867  -24.8007 O   0  0  0  0  0  0
  -31.8774  -18.7977  -26.1398 C   0  0  0  0  0  0
  -31.2174  -17.9881  -25.2839 N   0  0  0  0  0  0
  -30.0408  -18.2922  -24.4488 C   0  0  1  0  0  0
  -30.3120  -19.3609  -23.3777 C   0  0  1  0  0  0
  -29.0678  -19.9860  -23.7972 N   0  0  0  0  0  0
  -29.0029  -19.3021  -24.9974 C   0  0  0  0  0  0
  -28.3707  -19.4696  -26.0134 O   0  0  0  0  0  0
  -28.5571  -21.1096  -23.1205 C   0  0  0  0  0  0
  -28.2493  -22.4247  -23.9686 C   0  0  0  0  0  0
  -28.3683  -22.3495  -25.2133 O   0  5  0  0  0  0
  -27.9695  -23.4838  -23.3553 O   0  0  0  0  0  0
  -28.3169  -20.9407  -21.7930 C   0  0  0  0  0  0
  -28.6551  -19.6214  -21.0961 C   0  0  0  0  0  0
  -30.2554  -18.9195  -21.6135 S   0  0  0  0  0  0
  -27.5423  -21.9035  -20.9036 C   0  0  0  0  0  0
  -28.3741  -22.4615  -19.9053 O   0  0  0  0  0  0
  -27.9740  -23.5263  -19.2136 C   0  0  0  0  0  0
  -28.7690  -23.6274  -18.1025 N   0  0  0  0  0  0
  -27.0469  -24.2805  -19.5162 O   0  0  0  0  0  0
  -31.5299  -19.9500  -26.4132 O   0  0  0  0  0  0
  -36.2745  -18.6592  -29.6107 H   0  0  0  0  0  0
  -34.7059  -19.3663  -30.0138 H   0  0  0  0  0  0
  -35.6540  -20.0094  -28.6646 H   0  0  0  0  0  0
  -34.2615  -15.5178  -27.6468 H   0  0  0  0  0  0
  -35.2667  -14.1913  -25.4653 H   0  0  0  0  0  0
  -34.6980  -15.8704  -23.3501 H   0  0  0  0  0  0
  -31.5920  -17.0572  -25.1571 H   0  0  0  0  0  0
  -29.5957  -17.4016  -24.0069 H   0  0  0  0  0  0
  -31.1627  -20.0130  -23.5897 H   0  0  0  0  0  0
  -28.6978  -19.7574  -20.0142 H   0  0  0  0  0  0
  -27.8619  -18.8999  -21.2951 H   0  0  0  0  0  0
  -27.0274  -22.6762  -21.4663 H   0  0  0  0  0  0
  -26.7509  -21.3384  -20.4106 H   0  0  0  0  0  0
  -29.5262  -22.9471  -18.0130 H   0  0  0  0  0  0
  -28.5556  -24.3269  -17.4088 H   0  0  0  0  0  0
  1  2  1  0  0  0
  1 30  1  0  0  0
  1 31  1  0  0  0
  1 32  1  0  0  0
  2  3  1  0  0  0
  3  4  2  3  0  0
  4  5  1  0  0  0
  4 10  1  0  0  0
  5  9  1  0  0  0
  5  6  2  0  0  0
  6  7  1  0  0  0
  6 33  1  0  0  0
  7  8  2  0  0  0
  7 34  1  0  0  0
  8  9  1  0  0  0
  8 35  1  0  0  0
 10 11  1  0  0  0
 10 29  2  0  0  0
 11 12  1  0  0  0
 11 36  1  0  0  0
 12 15  1  0  0  0
 12 13  1  0  0  0
 12 37  1  0  0  0
 13 23  1  0  0  0
 13 14  1  0  0  0
 13 38  1  0  0  0
 14 15  1  0  0  0
 14 17  1  0  0  0
 15 16  2  0  0  0
 17 18  1  0  0  0
 17 21  2  0  0  0
 18 19  1  0  0  0
 18 20  2  0  0  0
 21 22  1  0  0  0
 21 24  1  0  0  0
 22 23  1  0  0  0
 22 39  1  0  0  0
 22 40  1  0  0  0
 24 25  1  0  0  0
 24 41  1  0  0  0
 24 42  1  0  0  0
 25 26  1  0  0  0
 26 27  1  0  0  0
 26 28  2  0  0  0
 27 43  1  0  0  0
 27 44  1  0  0  0
M  CHG  1  19  -1
M  END
> <s_m_entry_id>
27384

> <s_m_entry_name>
data_maestro.10

> <s_m_Source_Path>
C:\Users\olshana1\Git\GramNeg-Accumulation\Gram Negative Permeation - OmpF

> <s_m_Source_File>
data_maestro.csv

> <i_m_Source_File_Index>
10

> <s_m_job_name>
glide-dock_Nicaido_neutral

> <s_i_glide_gridfile>
3POX-grid

> <i_i_glide_lignum>
13

> <i_i_glide_rotatable_bonds>
9

> <r_i_docking_score>
-5.16298215136809

> <r_i_glide_ligand_efficiency>
-0.178033867288555

> <r_i_glide_ligand_efficiency_sa>
-0.546976445398604

> <r_i_glide_ligand_efficiency_ln>
-1.18219199073219

> <r_i_glide_gscore>
-5.16298215136809

> <r_i_glide_lipo>
-0.288690772163425

> <r_i_glide_hbond>
-0.889562553885882

> <r_i_glide_metal>
0

> <r_i_glide_rewards>
-0.480294047702482

> <r_i_glide_evdw>
-31.9519786834717

> <r_i_glide_ecoul>
-13.3088006973267

> <r_i_glide_erotb>
0.663396273735242

> <r_i_glide_esite>
-0.573912012578961

> <r_i_glide_emodel>
-69.74686884638

> <r_i_glide_energy>
-45.2607793807983

> <r_i_glide_einternal>
7.41022920608521

> <i_i_glide_confnum>
98

> <i_i_glide_posenum>
149

> <r_i_glide_eff_state_penalty>
0

> <r_glide_res:A132_vdw>
-1.10917769126518

> <r_glide_res:A132_coul>
-36.1584541866257

> <r_glide_res:A132_hbond>
-0.19585313198926

> <r_glide_res:A132_dist>
2.09176641991507

> <r_glide_res:A132_Eint>
-37.4634850098801

> <r_glide_res:A117_vdw>
-5.07507430884848

> <r_glide_res:A117_coul>
25.6621819367677

> <r_glide_res:A117_hbond>
0

> <r_glide_res:A117_dist>
2.04832086797297

> <r_glide_res:A117_Eint>
20.5871076279192

> <r_glide_res:A113_vdw>
-2.66477085273923

> <r_glide_res:A113_coul>
18.8329296940288

> <r_glide_res:A113_hbond>
-0.16

> <r_glide_res:A113_dist>
1.96877723758174

> <r_glide_res:A113_Eint>
16.0081588412895

> <r_glide_res:A82_vdw>
-0.612221607517038

> <r_glide_res:A82_coul>
-46.1495196366285

> <r_glide_res:A82_hbond>
-0.173780051116246

> <r_glide_res:A82_dist>
1.96249482494135

> <r_glide_res:A82_Eint>
-46.9355212952617

> <r_glide_res:A42_vdw>
0.25603271520143

> <r_glide_res:A42_coul>
-52.7166059007141

> <r_glide_res:A42_hbond>
-0.348928705847159

> <r_glide_res:A42_dist>
1.90546148896463

> <r_glide_res:A42_Eint>
-52.8095018913598

> <r_glide_res:A16_vdw>
-1.1954057640756

> <r_glide_res:A16_coul>
-41.8781003011785

> <r_glide_res:A16_hbond>
-0.00402592951105107

> <r_glide_res:A16_dist>
2.43069809968206

> <r_glide_res:A16_Eint>
-43.0775319947652

> <s_m_source_file>
ligprep_Nicaido_neutral.maegz

> <i_m_source_file_index>
10

> <i_lp_mmshare_version>
58128

> <i_f3d_flags>
0

> <s_lp_Force_Field>
S-OPLS

> <r_lp_Energy>
41.721283

> <b_lp_Chiralities_Consistent>
1

> <s_lp_Variant>
Cefuroxime-1

> <s_epik_input>
bzFbY0hdW2NIXVtjSF1jMS9DKD1OXE9bQ0gzXSlDKD1PKVtOSF1bQ0BASF0yQyg9TylOKFtDQEhdMjMpQyhDKD1PKVtPSF0pPUMoW0NIMl1TMylbQ0gyXU9DKD1PKVtOSDJd

> <s_epik_cmdline>
J2VwaWtfcHl0aG9uJywgJy1waHQnLCAnMC4wJywgJy1waCcsICc3LjQnLCAnLW50JywgJy1tYScsICc1MDAnLCAnLWltYWUnLCAnPGluZmlsZS5tYWU+JywgJy1vbWFlJywgJzxvdXRmaWxlLm1hZT4n

> <r_lp_tautomer_probability>
1

> <r_epik_Ionization_Penalty>
  0.0000

> <r_epik_Ionization_Penalty_Charging>
  0.0000

> <r_epik_Ionization_Penalty_Neutral>
  0.0000

> <r_epik_State_Penalty>
  0.0000

> <r_epik_Charging_Adjusted_Penalty>
8.57368987839538e-06

> <i_epik_Tot_Q>
-1

> <i_epik_Tot_abs_Q>
1

> <s_epik_Chemistry_Notes>
This compound has an ester and may undergo hydrolysis at high or low pH. This compound has an imine and may undergo hydrolysis. This compound contains an acetal/aminal-like group ( X-CH(R)-Y where X, Y are N, S, or O) that may be acid/base labile, releasing an aldehyde.

> <s_m_subgroup_title>
glide-dock_Nicaido_neutral_pv1

> <s_m_subgroupid>
glide-dock_Nicaido_neutral_pv1

> <b_m_subgroup_collapsed>
0

$$$$
Cephaloglycin
                    3D
 Schrodinger Suite 2022-2.
 46 48  0  0  1  0            999 V2000
  -26.2843  -23.1496  -18.0455 C   0  0  0  0  0  0
  -27.1209  -23.2466  -19.3081 C   0  0  0  0  0  0
  -28.2328  -22.5004  -19.2296 O   0  0  0  0  0  0
  -29.0859  -22.3147  -20.3531 C   0  0  0  0  0  0
  -28.4138  -21.4620  -21.4211 C   0  0  0  0  0  0
  -28.2299  -21.8165  -22.7173 C   0  0  0  0  0  0
  -27.5441  -20.9087  -23.5342 N   0  0  0  0  0  0
  -26.2286  -20.4408  -23.0971 C   0  0  1  0  0  0
  -26.2488  -19.5961  -24.3829 C   0  0  2  0  0  0
  -27.2740  -20.6489  -24.8634 C   0  0  0  0  0  0
  -27.6482  -21.1496  -25.9010 O   0  0  0  0  0  0
  -24.9621  -19.5496  -25.0866 N   0  0  0  0  0  0
  -24.1906  -20.5428  -25.5717 C   0  0  0  0  0  0
  -22.8795  -20.1561  -26.2898 C   0  0  2  0  0  0
  -21.7793  -20.5634  -25.3677 C   0  0  0  0  0  0
  -21.4266  -19.7866  -24.2365 C   0  0  0  0  0  0
  -20.3690  -20.1635  -23.3872 C   0  0  0  0  0  0
  -19.6349  -21.3322  -23.6555 C   0  0  0  0  0  0
  -19.9660  -22.1199  -24.7722 C   0  0  0  0  0  0
  -21.0283  -21.7367  -25.6134 C   0  0  0  0  0  0
  -22.7689  -18.7496  -26.6763 N   0  0  0  0  0  0
  -24.4862  -21.7354  -25.4724 O   0  0  0  0  0  0
  -26.2803  -19.7015  -21.4169 S   0  0  0  0  0  0
  -27.9844  -20.0818  -20.9311 C   0  0  0  0  0  0
  -28.7550  -23.1497  -23.3725 C   0  0  0  0  0  0
  -28.6339  -24.1940  -22.6920 O   0  5  0  0  0  0
  -29.1689  -23.1158  -24.5552 O   0  0  0  0  0  0
  -26.7689  -23.9496  -20.2576 O   0  0  0  0  0  0
  -25.3599  -23.7179  -18.1425 H   0  0  0  0  0  0
  -26.0387  -22.1093  -17.8301 H   0  0  0  0  0  0
  -26.8574  -23.5496  -17.2134 H   0  0  0  0  0  0
  -29.9689  -21.7763  -20.0134 H   0  0  0  0  0  0
  -29.4411  -23.2759  -20.7144 H   0  0  0  0  0  0
  -25.5075  -21.2622  -23.1092 H   0  0  0  0  0  0
  -26.6708  -18.6028  -24.2185 H   0  0  0  0  0  0
  -24.6386  -18.5903  -25.2134 H   0  0  0  0  0  0
  -22.8325  -20.7452  -27.2072 H   0  0  0  0  0  0
  -21.9717  -18.8777  -24.0222 H   0  0  0  0  0  0
  -20.1186  -19.5486  -22.5350 H   0  0  0  0  0  0
  -18.8177  -21.6182  -23.0098 H   0  0  0  0  0  0
  -19.4005  -23.0133  -24.9904 H   0  0  0  0  0  0
  -21.2636  -22.3496  -26.4707 H   0  0  0  0  0  0
  -22.7614  -18.6360  -27.6795 H   0  0  0  0  0  0
  -23.5309  -18.1707  -26.3328 H   0  0  0  0  0  0
  -28.6530  -19.3349  -21.3610 H   0  0  0  0  0  0
  -28.0731  -19.9885  -19.8478 H   0  0  0  0  0  0
  1  2  1  0  0  0
  1 29  1  0  0  0
  1 30  1  0  0  0
  1 31  1  0  0  0
  2  3  1  0  0  0
  2 28  2  0  0  0
  3  4  1  0  0  0
  4  5  1  0  0  0
  4 32  1  0  0  0
  4 33  1  0  0  0
  5 24  1  0  0  0
  5  6  2  0  0  0
  6  7  1  0  0  0
  6 25  1  0  0  0
  7 10  1  0  0  0
  7  8  1  0  0  0
  8  9  1  0  0  0
  8 23  1  0  0  0
  8 34  1  0  0  0
  9 10  1  0  0  0
  9 12  1  0  0  0
  9 35  1  0  0  0
 10 11  2  0  0  0
 12 13  1  0  0  0
 12 36  1  0  0  0
 13 14  1  0  0  0
 13 22  2  0  0  0
 14 15  1  0  0  0
 14 21  1  0  0  0
 14 37  1  0  0  0
 15 20  1  0  0  0
 15 16  2  0  0  0
 16 17  1  0  0  0
 16 38  1  0  0  0
 17 18  2  0  0  0
 17 39  1  0  0  0
 18 19  1  0  0  0
 18 40  1  0  0  0
 19 20  2  0  0  0
 19 41  1  0  0  0
 20 42  1  0  0  0
 21 43  1  0  0  0
 21 44  1  0  0  0
 23 24  1  0  0  0
 24 45  1  0  0  0
 24 46  1  0  0  0
 25 26  1  0  0  0
 25 27  2  0  0  0
M  CHG  1  26  -1
M  END
> <s_m_entry_id>
27385

> <s_m_entry_name>
data_maestro.16

> <s_m_Source_Path>
C:\Users\olshana1\Git\GramNeg-Accumulation\Gram Negative Permeation - OmpF

> <s_m_Source_File>
data_maestro.csv

> <i_m_Source_File_Index>
16

> <s_m_job_name>
glide-dock_Nicaido_neutral

> <s_i_glide_gridfile>
3POX-grid

> <i_i_glide_lignum>
21

> <i_i_glide_rotatable_bonds>
8

> <r_i_docking_score>
-5.16169210743628

> <r_i_glide_ligand_efficiency>
-0.184346146694153

> <r_i_glide_ligand_efficiency_sa>
-0.559783475437467

> <r_i_glide_ligand_efficiency_ln>
-1.191470092262

> <r_i_glide_gscore>
-5.27309210743628

> <r_i_glide_lipo>
0

> <r_i_glide_hbond>
-1.19344008523246

> <r_i_glide_metal>
0

> <r_i_glide_rewards>
-0.650240340047045

> <r_i_glide_evdw>
-27.2782554626465

> <r_i_glide_ecoul>
-14.3512601852417

> <r_i_glide_erotb>
0.600502745111863

> <r_i_glide_esite>
-0.513312626350061

> <r_i_glide_emodel>
-67.1116236881587

> <r_i_glide_energy>
-41.6295156478882

> <r_i_glide_einternal>
6.60569620132446

> <i_i_glide_confnum>
76

> <i_i_glide_posenum>
388

> <r_i_glide_eff_state_penalty>
0.1114

> <r_glide_res:A132_vdw>
-1.74110077516824

> <r_glide_res:A132_coul>
-40.1570164369553

> <r_glide_res:A132_hbond>
-0.218949737605362

> <r_glide_res:A132_dist>
2.05823483409192

> <r_glide_res:A132_Eint>
-42.1170669497289

> <r_glide_res:A117_vdw>
-3.08575408726364

> <r_glide_res:A117_coul>
5.73560518090723

> <r_glide_res:A117_hbond>
-0.304

> <r_glide_res:A117_dist>
1.77710120239136

> <r_glide_res:A117_Eint>
2.34585109364359

> <r_glide_res:A113_vdw>
-2.05108993028926

> <r_glide_res:A113_coul>
21.0432424294366

> <r_glide_res:A113_hbond>
0

> <r_glide_res:A113_dist>
2.27304195389503

> <r_glide_res:A113_Eint>
18.9921524991473

> <r_glide_res:A82_vdw>
0.279781279309508

> <r_glide_res:A82_coul>
-52.9858493146494

> <r_glide_res:A82_hbond>
-0.339040261920709

> <r_glide_res:A82_dist>
1.902713921392

> <r_glide_res:A82_Eint>
-53.0451082972606

> <r_glide_res:A42_vdw>
-1.81126465047921

> <r_glide_res:A42_coul>
-50.8323739236514

> <r_glide_res:A42_hbond>
-0.331450085706388

> <r_glide_res:A42_dist>
2.0396251864663

> <r_glide_res:A42_Eint>
-52.975088659837

> <r_glide_res:A16_vdw>
-0.508535129994711

> <r_glide_res:A16_coul>
-30.2952130732153

> <r_glide_res:A16_hbond>
0

> <r_glide_res:A16_dist>
3.45184471307691

> <r_glide_res:A16_Eint>
-30.80374820321

> <s_m_source_file>
ligprep_Nicaido_neutral.maegz

> <i_m_source_file_index>
16

> <i_lp_mmshare_version>
58128

> <i_f3d_flags>
0

> <s_lp_Force_Field>
S-OPLS

> <r_lp_Energy>
48.658328

> <b_lp_Chiralities_Consistent>
1

> <s_lp_Variant>
Cephaloglycin-1

> <s_epik_input>
W0NIM11DKD1PKU9bQ0gyXUMoPUMxQyg9TylbT0hdKVtDSDJdU1tDQEBIXShOMTIpW0NASF0oQzI9TylbTkhdQyg9TylbQ0BASF0oW05IMl0pYzNbY0hdW2NIXVtjSF1bY0hdW2NIXTM=

> <s_epik_cmdline>
J2VwaWtfcHl0aG9uJywgJy1waHQnLCAnMC4wJywgJy1waCcsICc3LjQnLCAnLW50JywgJy1tYScsICc1MDAnLCAnLWltYWUnLCAnPGluZmlsZS5tYWU+JywgJy1vbWFlJywgJzxvdXRmaWxlLm1hZT4n

> <r_epik_Ionization_Penalty>
  0.1114

> <r_epik_Ionization_Penalty_Charging>
  0.0000

> <r_epik_Ionization_Penalty_Neutral>
  0.1114

> <r_epik_State_Penalty>
  0.1114

> <r_epik_Charging_Adjusted_Penalty>
0.111378695294398

> <i_epik_Tot_Q>
-1

> <i_epik_Tot_abs_Q>
1

> <s_epik_Chemistry_Notes>
This compound has an ester and may undergo hydrolysis at high or low pH. This compound contains an acetal/aminal-like group ( X-CH(R)-Y where X, Y are N, S, or O) that may be acid/base labile, releasing an aldehyde.

> <s_m_subgroup_title>
glide-dock_Nicaido_neutral_pv1

> <s_m_subgroupid>
glide-dock_Nicaido_neutral_pv1

> <b_m_subgroup_collapsed>
0

$$$$
Cefaclor
                    3D
 Schrodinger Suite 2022-2.
 37 39  0  0  1  0            999 V2000
  -28.3819  -23.9498  -22.6349 O   0  0  0  0  0  0
  -29.2868  -23.2369  -22.2496 C   0  0  0  0  0  0
  -29.8596  -22.7449  -20.8985 C   0  0  2  0  0  0
  -30.5631  -21.6690  -21.7451 C   0  0  1  0  0  0
  -30.2757  -22.5157  -22.8966 N   0  0  0  0  0  0
  -30.6675  -22.0577  -24.1637 C   0  0  0  0  0  0
  -29.5808  -21.9495  -25.2995 C   0  0  0  0  0  0
  -29.9689  -21.5536  -26.4137 O   0  5  0  0  0  0
  -28.4198  -22.3494  -25.0627 O   0  0  0  0  0  0
  -31.9749  -21.7255  -24.3048 C   0  0  0  0  0  0
  -32.9886  -21.9248  -23.1951 C   0  0  0  0  0  0
  -32.3648  -21.3072  -21.6129 S   0  0  0  0  0  0
  -32.7447  -21.1158  -25.7342 Cl  0  0  0  0  0  0
  -28.8735  -22.1392  -20.0132 N   0  0  0  0  0  0
  -27.8223  -22.7521  -19.4548 C   0  0  0  0  0  0
  -26.9246  -21.8699  -18.5697 C   0  0  2  0  0  0
  -26.0720  -21.1291  -19.5496 C   0  0  0  0  0  0
  -24.8917  -21.6865  -20.1020 C   0  0  0  0  0  0
  -24.1115  -20.9795  -21.0382 C   0  0  0  0  0  0
  -24.4978  -19.6904  -21.4443 C   0  0  0  0  0  0
  -25.6619  -19.1153  -20.9067 C   0  0  0  0  0  0
  -26.4347  -19.8280  -19.9719 C   0  0  0  0  0  0
  -26.1542  -22.6583  -17.6115 N   0  0  0  0  0  0
  -27.5669  -23.9495  -19.6303 O   0  0  0  0  0  0
  -30.5573  -23.4200  -20.3997 H   0  0  0  0  0  0
  -29.9980  -20.7346  -21.8095 H   0  0  0  0  0  0
  -33.9354  -21.4338  -23.4211 H   0  0  0  0  0  0
  -33.1911  -22.9916  -23.0988 H   0  0  0  0  0  0
  -29.0622  -21.1834  -19.7350 H   0  0  0  0  0  0
  -27.5577  -21.1802  -18.0069 H   0  0  0  0  0  0
  -24.5814  -22.6765  -19.8026 H   0  0  0  0  0  0
  -23.2160  -21.4255  -21.4445 H   0  0  0  0  0  0
  -23.9077  -19.1421  -22.1644 H   0  0  0  0  0  0
  -25.9693  -18.1262  -21.2132 H   0  0  0  0  0  0
  -27.3262  -19.3625  -19.5747 H   0  0  0  0  0  0
  -26.3253  -22.3171  -16.6731 H   0  0  0  0  0  0
  -26.4848  -23.6134  -17.5980 H   0  0  0  0  0  0
  1  2  2  0  0  0
  2  5  1  0  0  0
  2  3  1  0  0  0
  3  4  1  0  0  0
  3 14  1  0  0  0
  3 25  1  0  0  0
  4 12  1  0  0  0
  4  5  1  0  0  0
  4 26  1  0  0  0
  5  6  1  0  0  0
  6  7  1  0  0  0
  6 10  2  0  0  0
  7  8  1  0  0  0
  7  9  2  0  0  0
 10 11  1  0  0  0
 10 13  1  0  0  0
 11 12  1  0  0  0
 11 27  1  0  0  0
 11 28  1  0  0  0
 14 15  1  0  0  0
 14 29  1  0  0  0
 15 16  1  0  0  0
 15 24  2  0  0  0
 16 17  1  0  0  0
 16 23  1  0  0  0
 16 30  1  0  0  0
 17 22  1  0  0  0
 17 18  2  0  0  0
 18 19  1  0  0  0
 18 31  1  0  0  0
 19 20  2  0  0  0
 19 32  1  0  0  0
 20 21  1  0  0  0
 20 33  1  0  0  0
 21 22  2  0  0  0
 21 34  1  0  0  0
 22 35  1  0  0  0
 23 36  1  0  0  0
 23 37  1  0  0  0
M  CHG  1   8  -1
M  END
> <s_m_entry_id>
27386

> <s_m_entry_name>
data_maestro.15

> <s_m_Source_Path>
C:\Users\olshana1\Git\GramNeg-Accumulation\Gram Negative Permeation - OmpF

> <s_m_Source_File>
data_maestro.csv

> <i_m_Source_File_Index>
15

> <s_m_job_name>
glide-dock_Nicaido_neutral

> <s_i_glide_gridfile>
3POX-grid

> <i_i_glide_lignum>
20

> <i_i_glide_rotatable_bonds>
5

> <r_i_docking_score>
-5.15782724505168

> <r_i_glide_ligand_efficiency>
-0.21490946854382

> <r_i_glide_ligand_efficiency_sa>
-0.619906176667938

> <r_i_glide_ligand_efficiency_ln>
-1.23450473701105

> <r_i_glide_gscore>
-5.27422724505168

> <r_i_glide_lipo>
0

> <r_i_glide_hbond>
-1.13508205448419

> <r_i_glide_metal>
0

> <r_i_glide_rewards>
-0.908180985652411

> <r_i_glide_evdw>
-21.6316108703613

> <r_i_glide_ecoul>
-14.0986156463623

> <r_i_glide_erotb>
0.429266414571003

> <r_i_glide_esite>
-0.463857729013677

> <r_i_glide_emodel>
-59.4020185424171

> <r_i_glide_energy>
-35.7302265167236

> <r_i_glide_einternal>
1.96817433834076

> <i_i_glide_confnum>
16

> <i_i_glide_posenum>
187

> <r_i_glide_eff_state_penalty>
0.1164

> <r_glide_res:A132_vdw>
-2.00274389605055

> <r_glide_res:A132_coul>
-31.9809478104872

> <r_glide_res:A132_hbond>
-0.16

> <r_glide_res:A132_dist>
2.06191305426215

> <r_glide_res:A132_Eint>
-34.1436917065377

> <r_glide_res:A117_vdw>
-1.35682456378289

> <r_glide_res:A117_coul>
24.9756742837878

> <r_glide_res:A117_hbond>
0

> <r_glide_res:A117_dist>
2.32152201142689

> <r_glide_res:A117_Eint>
23.6188497200049

> <r_glide_res:A113_vdw>
-4.13952558688805

> <r_glide_res:A113_coul>
11.2114936542059

> <r_glide_res:A113_hbond>
-0.0034313942812459

> <r_glide_res:A113_dist>
2.48888699156171

> <r_glide_res:A113_Eint>
7.06853667303661

> <r_glide_res:A82_vdw>
-1.55735740415123

> <r_glide_res:A82_coul>
-39.7328131552838

> <r_glide_res:A82_hbond>
-0.245219011988197

> <r_glide_res:A82_dist>
2.04003063968032

> <r_glide_res:A82_Eint>
-41.5353895714232

> <r_glide_res:A42_vdw>
-0.417097267295006

> <r_glide_res:A42_coul>
-49.8573017016081

> <r_glide_res:A42_hbond>
-0.396207709549863

> <r_glide_res:A42_dist>
2.02379498763337

> <r_glide_res:A42_Eint>
-50.670606678453

> <r_glide_res:A16_vdw>
0.417010103609875

> <r_glide_res:A16_coul>
-49.3240410872061

> <r_glide_res:A16_hbond>
-0.2

> <r_glide_res:A16_dist>
1.7801842869269

> <r_glide_res:A16_Eint>
-49.1070309835962

> <s_m_source_file>
ligprep_Nicaido_neutral.maegz

> <i_m_source_file_index>
15

> <i_lp_mmshare_version>
58128

> <i_f3d_flags>
0

> <s_lp_Force_Field>
S-OPLS

> <r_lp_Energy>
48.098991

> <b_lp_Chiralities_Consistent>
1

> <s_lp_Variant>
Cefaclor-1

> <s_epik_input>
UzFbQ0gyXUMoQ2wpPUMoQyg9TylbT0hdKU4oW0NAQEhdMTIpQyg9TylbQ0BIXTJbTkhdQyg9TylbQ0BASF0oW05IMl0pYzNbY0hdW2NIXVtjSF1bY0hdW2NIXTM=

> <s_epik_cmdline>
J2VwaWtfcHl0aG9uJywgJy1waHQnLCAnMC4wJywgJy1waCcsICc3LjQnLCAnLW50JywgJy1tYScsICc1MDAnLCAnLWltYWUnLCAnPGluZmlsZS5tYWU+JywgJy1vbWFlJywgJzxvdXRmaWxlLm1hZT4n

> <r_epik_Ionization_Penalty>
  0.1164

> <r_epik_Ionization_Penalty_Charging>
  0.0000

> <r_epik_Ionization_Penalty_Neutral>
  0.1164

> <r_epik_State_Penalty>
  0.1164

> <r_epik_Charging_Adjusted_Penalty>
0.116403072965043

> <i_epik_Tot_Q>
-1

> <i_epik_Tot_abs_Q>
1

> <s_epik_Chemistry_Notes>
This compound contains an acetal/aminal-like group ( X-CH(R)-Y where X, Y are N, S, or O) that may be acid/base labile, releasing an aldehyde.

> <s_m_subgroup_title>
glide-dock_Nicaido_neutral_pv1

> <s_m_subgroupid>
glide-dock_Nicaido_neutral_pv1

> <b_m_subgroup_collapsed>
0

$$$$
Cephaloglycin
                    3D
 Schrodinger Suite 2022-2.
 46 48  0  0  1  0            999 V2000
  -25.0832  -23.0193  -17.6502 C   0  0  0  0  0  0
  -26.2619  -23.3349  -18.5632 C   0  0  0  0  0  0
  -27.2116  -22.3872  -18.5118 O   0  0  0  0  0  0
  -28.2625  -22.3520  -19.4692 C   0  0  0  0  0  0
  -27.8588  -21.5005  -20.6655 C   0  0  0  0  0  0
  -27.7024  -21.9601  -21.9275 C   0  0  0  0  0  0
  -27.2460  -21.0667  -22.9071 N   0  0  0  0  0  0
  -26.0005  -20.3449  -22.6594 C   0  0  1  0  0  0
  -26.2440  -19.6865  -24.0360 C   0  0  2  0  0  0
  -27.1588  -20.9216  -24.2804 C   0  0  0  0  0  0
  -27.5837  -21.5712  -25.2137 O   0  0  0  0  0  0
  -25.0249  -19.5591  -24.8623 N   0  0  0  0  0  0
  -24.2321  -20.5434  -25.3451 C   0  0  0  0  0  0
  -22.9742  -20.1702  -26.1628 C   0  0  2  0  0  0
  -21.8226  -20.7563  -25.4162 C   0  0  0  0  0  0
  -21.2963  -20.1509  -24.2486 C   0  0  0  0  0  0
  -20.1906  -20.7007  -23.5723 C   0  0  0  0  0  0
  -19.5828  -21.8733  -24.0549 C   0  0  0  0  0  0
  -20.0877  -22.4918  -25.2126 C   0  0  0  0  0  0
  -21.1972  -21.9362  -25.8784 C   0  0  0  0  0  0
  -22.7690  -18.7495  -26.4136 N   0  0  0  0  0  0
  -24.4738  -21.7406  -25.1732 O   0  0  0  0  0  0
  -26.0707  -19.4272  -21.0636 S   0  0  0  0  0  0
  -27.6416  -20.0239  -20.3630 C   0  0  0  0  0  0
  -27.8435  -23.4599  -22.3247 C   0  0  0  0  0  0
  -28.9849  -23.9207  -22.5489 O   0  5  0  0  0  0
  -26.7694  -24.0929  -22.4134 O   0  0  0  0  0  0
  -26.2772  -24.3493  -19.2653 O   0  0  0  0  0  0
  -24.1485  -23.3129  -18.1279 H   0  0  0  0  0  0
  -25.0394  -21.9498  -17.4393 H   0  0  0  0  0  0
  -25.1700  -23.5499  -16.7031 H   0  0  0  0  0  0
  -29.1386  -21.8954  -19.0084 H   0  0  0  0  0  0
  -28.5620  -23.3574  -19.7649 H   0  0  0  0  0  0
  -25.1566  -21.0401  -22.6450 H   0  0  0  0  0  0
  -26.7909  -18.7482  -23.9500 H   0  0  0  0  0  0
  -24.7688  -18.5932  -25.0694 H   0  0  0  0  0  0
  -23.0778  -20.6559  -27.1345 H   0  0  0  0  0  0
  -21.7432  -19.2417  -23.8713 H   0  0  0  0  0  0
  -19.8061  -20.2152  -22.6874 H   0  0  0  0  0  0
  -18.7284  -22.2905  -23.5423 H   0  0  0  0  0  0
  -19.6204  -23.3853  -25.5985 H   0  0  0  0  0  0
  -21.5688  -22.4149  -26.7727 H   0  0  0  0  0  0
  -22.7736  -18.5434  -27.4016 H   0  0  0  0  0  0
  -23.4918  -18.1532  -26.0130 H   0  0  0  0  0  0
  -28.4688  -19.4514  -20.7844 H   0  0  0  0  0  0
  -27.6449  -19.8358  -19.2889 H   0  0  0  0  0  0
  1  2  1  0  0  0
  1 29  1  0  0  0
  1 30  1  0  0  0
  1 31  1  0  0  0
  2  3  1  0  0  0
  2 28  2  0  0  0
  3  4  1  0  0  0
  4  5  1  0  0  0
  4 32  1  0  0  0
  4 33  1  0  0  0
  5 24  1  0  0  0
  5  6  2  0  0  0
  6  7  1  0  0  0
  6 25  1  0  0  0
  7 10  1  0  0  0
  7  8  1  0  0  0
  8  9  1  0  0  0
  8 23  1  0  0  0
  8 34  1  0  0  0
  9 10  1  0  0  0
  9 12  1  0  0  0
  9 35  1  0  0  0
 10 11  2  0  0  0
 12 13  1  0  0  0
 12 36  1  0  0  0
 13 14  1  0  0  0
 13 22  2  0  0  0
 14 15  1  0  0  0
 14 21  1  0  0  0
 14 37  1  0  0  0
 15 20  1  0  0  0
 15 16  2  0  0  0
 16 17  1  0  0  0
 16 38  1  0  0  0
 17 18  2  0  0  0
 17 39  1  0  0  0
 18 19  1  0  0  0
 18 40  1  0  0  0
 19 20  2  0  0  0
 19 41  1  0  0  0
 20 42  1  0  0  0
 21 43  1  0  0  0
 21 44  1  0  0  0
 23 24  1  0  0  0
 24 45  1  0  0  0
 24 46  1  0  0  0
 25 26  1  0  0  0
 25 27  2  0  0  0
M  CHG  1  26  -1
M  END
> <s_m_entry_id>
27387

> <s_m_entry_name>
data_maestro.16

> <s_m_Source_Path>
C:\Users\olshana1\Git\GramNeg-Accumulation\Gram Negative Permeation - OmpF

> <s_m_Source_File>
data_maestro.csv

> <i_m_Source_File_Index>
16

> <s_m_job_name>
glide-dock_Nicaido_neutral

> <s_i_glide_gridfile>
3POX-grid

> <i_i_glide_lignum>
21

> <i_i_glide_rotatable_bonds>
8

> <r_i_docking_score>
-5.15438143226376

> <r_i_glide_ligand_efficiency>
-0.184085051152277

> <r_i_glide_ligand_efficiency_sa>
-0.558990635595282

> <r_i_glide_ligand_efficiency_ln>
-1.18978257378143

> <r_i_glide_gscore>
-5.26578143226376

> <r_i_glide_lipo>
0

> <r_i_glide_hbond>
-0.989764791066828

> <r_i_glide_metal>
0

> <r_i_glide_rewards>
-0.645489589279212

> <r_i_glide_evdw>
-29.560209274292

> <r_i_glide_ecoul>
-15.1500453948975

> <r_i_glide_erotb>
0.600502745111863

> <r_i_glide_esite>
-0.480512524080367

> <r_i_glide_emodel>
-68.9194892410022

> <r_i_glide_energy>
-44.7102546691895

> <r_i_glide_einternal>
9.04446887969971

> <i_i_glide_confnum>
76

> <i_i_glide_posenum>
109

> <r_i_glide_eff_state_penalty>
0.1114

> <r_glide_res:A132_vdw>
-2.07411572811891

> <r_glide_res:A132_coul>
-46.4519658566696

> <r_glide_res:A132_hbond>
-0.131452951329417

> <r_glide_res:A132_dist>
2.16730267617733

> <r_glide_res:A132_Eint>
-48.657534536118

> <r_glide_res:A117_vdw>
-2.63899597533459

> <r_glide_res:A117_coul>
3.63487499184237

> <r_glide_res:A117_hbond>
-0.304

> <r_glide_res:A117_dist>
1.80255593651852

> <r_glide_res:A117_Eint>
0.691879016507776

> <r_glide_res:A113_vdw>
-2.001675220861

> <r_glide_res:A113_coul>
21.9790785874104

> <r_glide_res:A113_hbond>
0

> <r_glide_res:A113_dist>
2.27980524371735

> <r_glide_res:A113_Eint>
19.9774033665494

> <r_glide_res:A82_vdw>
0.661715237263174

> <r_glide_res:A82_coul>
-55.98696902237

> <r_glide_res:A82_hbond>
-0.402311839737411

> <r_glide_res:A82_dist>
1.74972649923094

> <r_glide_res:A82_Eint>
-55.7275656248442

> <r_glide_res:A42_vdw>
-1.26291108061511

> <r_glide_res:A42_coul>
-41.2660738724089

> <r_glide_res:A42_hbond>
-0.152

> <r_glide_res:A42_dist>
1.86780232733729

> <r_glide_res:A42_Eint>
-42.680984953024

> <r_glide_res:A16_vdw>
-0.28834724455447

> <r_glide_res:A16_coul>
-22.9319488024083

> <r_glide_res:A16_hbond>
0

> <r_glide_res:A16_dist>
3.99387215156319

> <r_glide_res:A16_Eint>
-23.2202960469627

> <s_m_source_file>
ligprep_Nicaido_neutral.maegz

> <i_m_source_file_index>
16

> <i_lp_mmshare_version>
58128

> <i_f3d_flags>
0

> <s_lp_Force_Field>
S-OPLS

> <r_lp_Energy>
48.658328

> <b_lp_Chiralities_Consistent>
1

> <s_lp_Variant>
Cephaloglycin-1

> <s_epik_input>
W0NIM11DKD1PKU9bQ0gyXUMoPUMxQyg9TylbT0hdKVtDSDJdU1tDQEBIXShOMTIpW0NASF0oQzI9TylbTkhdQyg9TylbQ0BASF0oW05IMl0pYzNbY0hdW2NIXVtjSF1bY0hdW2NIXTM=

> <s_epik_cmdline>
J2VwaWtfcHl0aG9uJywgJy1waHQnLCAnMC4wJywgJy1waCcsICc3LjQnLCAnLW50JywgJy1tYScsICc1MDAnLCAnLWltYWUnLCAnPGluZmlsZS5tYWU+JywgJy1vbWFlJywgJzxvdXRmaWxlLm1hZT4n

> <r_epik_Ionization_Penalty>
  0.1114

> <r_epik_Ionization_Penalty_Charging>
  0.0000

> <r_epik_Ionization_Penalty_Neutral>
  0.1114

> <r_epik_State_Penalty>
  0.1114

> <r_epik_Charging_Adjusted_Penalty>
0.111378695294398

> <i_epik_Tot_Q>
-1

> <i_epik_Tot_abs_Q>
1

> <s_epik_Chemistry_Notes>
This compound has an ester and may undergo hydrolysis at high or low pH. This compound contains an acetal/aminal-like group ( X-CH(R)-Y where X, Y are N, S, or O) that may be acid/base labile, releasing an aldehyde.

> <s_m_subgroup_title>
glide-dock_Nicaido_neutral_pv1

> <s_m_subgroupid>
glide-dock_Nicaido_neutral_pv1

> <b_m_subgroup_collapsed>
0

$$$$
Cyclacillin
                    3D
 Schrodinger Suite 2022-2.
 46 48  0  0  1  0            999 V2000
  -21.7770  -23.2725  -23.1479 C   0  0  0  0  0  0
  -22.6403  -22.7864  -24.3295 C   0  0  0  0  0  0
  -23.9691  -23.5897  -24.5610 C   0  0  2  0  0  0
  -24.9798  -22.8220  -23.8547 N   0  0  0  0  0  0
  -24.9625  -21.3750  -23.7869 C   0  0  2  0  0  0
  -23.1711  -21.0750  -23.9094 S   0  0  0  0  0  0
  -25.7788  -21.4766  -22.4878 C   0  0  2  0  0  0
  -25.8978  -22.9756  -22.8441 C   0  0  0  0  0  0
  -26.4780  -23.9496  -22.4130 O   0  0  0  0  0  0
  -27.0245  -20.7049  -22.5680 N   0  0  0  0  0  0
  -28.1002  -20.8690  -21.7751 C   0  0  0  0  0  0
  -29.2918  -19.8886  -21.9236 C   0  0  0  0  0  0
  -29.2761  -19.1493  -23.2923 C   0  0  0  0  0  0
  -30.4920  -18.2274  -23.4896 C   0  0  0  0  0  0
  -31.8102  -18.9960  -23.3274 C   0  0  0  0  0  0
  -31.8637  -19.7380  -21.9836 C   0  0  0  0  0  0
  -30.6365  -20.6510  -21.7882 C   0  0  0  0  0  0
  -29.1705  -18.9249  -20.8132 N   0  3  0  0  0  0
  -28.1428  -21.7518  -20.9207 O   0  0  0  0  0  0
  -23.9689  -25.1146  -24.2899 C   0  0  0  0  0  0
  -24.3688  -25.8567  -25.2138 O   0  5  0  0  0  0
  -23.6010  -25.5499  -23.1771 O   0  0  0  0  0  0
  -21.7903  -22.7692  -25.6127 C   0  0  0  0  0  0
  -21.3422  -24.2546  -23.3319 H   0  0  0  0  0  0
  -22.3623  -23.3291  -22.2295 H   0  0  0  0  0  0
  -20.9487  -22.5880  -22.9626 H   0  0  0  0  0  0
  -24.2398  -23.4753  -25.6108 H   0  0  0  0  0  0
  -25.4940  -20.9055  -24.6173 H   0  0  0  0  0  0
  -25.1813  -21.2633  -21.6014 H   0  0  0  0  0  0
  -27.0319  -19.9328  -23.2202 H   0  0  0  0  0  0
  -28.3690  -18.5612  -23.4188 H   0  0  0  0  0  0
  -29.2686  -19.8828  -24.0992 H   0  0  0  0  0  0
  -30.4516  -17.4043  -22.7759 H   0  0  0  0  0  0
  -30.4538  -17.7669  -24.4771 H   0  0  0  0  0  0
  -32.6522  -18.3067  -23.4064 H   0  0  0  0  0  0
  -31.9201  -19.7103  -24.1440 H   0  0  0  0  0  0
  -31.9259  -19.0178  -21.1662 H   0  0  0  0  0  0
  -32.7765  -20.3331  -21.9232 H   0  0  0  0  0  0
  -30.6768  -21.4550  -22.5239 H   0  0  0  0  0  0
  -30.7108  -21.1376  -20.8131 H   0  0  0  0  0  0
  -29.8236  -18.1644  -20.9379 H   0  0  0  0  0  0
  -29.4107  -19.3898  -19.9385 H   0  0  0  0  0  0
  -21.4923  -23.7772  -25.9036 H   0  0  0  0  0  0
  -22.3369  -22.3340  -26.4507 H   0  0  0  0  0  0
  -20.8817  -22.1793  -25.4805 H   0  0  0  0  0  0
  -28.2368  -18.5450  -20.7565 H   0  0  0  0  0  0
  1  2  1  0  0  0
  1 24  1  0  0  0
  1 25  1  0  0  0
  1 26  1  0  0  0
  2  6  1  0  0  0
  2  3  1  0  0  0
  2 23  1  0  0  0
  3  4  1  0  0  0
  3 20  1  0  0  0
  3 27  1  0  0  0
  4  8  1  0  0  0
  4  5  1  0  0  0
  5  6  1  0  0  0
  5  7  1  0  0  0
  5 28  1  0  0  0
  7  8  1  0  0  0
  7 10  1  0  0  0
  7 29  1  0  0  0
  8  9  2  0  0  0
 10 11  1  0  0  0
 10 30  1  0  0  0
 11 12  1  0  0  0
 11 19  2  0  0  0
 12 17  1  0  0  0
 12 13  1  0  0  0
 12 18  1  0  0  0
 13 14  1  0  0  0
 13 31  1  0  0  0
 13 32  1  0  0  0
 14 15  1  0  0  0
 14 33  1  0  0  0
 14 34  1  0  0  0
 15 16  1  0  0  0
 15 35  1  0  0  0
 15 36  1  0  0  0
 16 17  1  0  0  0
 16 37  1  0  0  0
 16 38  1  0  0  0
 17 39  1  0  0  0
 17 40  1  0  0  0
 18 41  1  0  0  0
 18 42  1  0  0  0
 18 46  1  0  0  0
 20 21  1  0  0  0
 20 22  2  0  0  0
 23 43  1  0  0  0
 23 44  1  0  0  0
 23 45  1  0  0  0
M  CHG  2  18   1  21  -1
M  END
> <s_m_entry_id>
27388

> <s_m_entry_name>
data_maestro.19

> <s_m_Source_Path>
C:\Users\olshana1\Git\GramNeg-Accumulation\Gram Negative Permeation - OmpF

> <s_m_Source_File>
data_maestro.csv

> <i_m_Source_File_Index>
19

> <s_m_job_name>
glide-dock_Nicaido_neutral

> <s_i_glide_gridfile>
3POX-grid

> <i_i_glide_lignum>
24

> <i_i_glide_rotatable_bonds>
4

> <r_i_docking_score>
-5.1536605397626

> <r_i_glide_ligand_efficiency>
-0.224072197380983

> <r_i_glide_ligand_efficiency_sa>
-0.637231522568547

> <r_i_glide_ligand_efficiency_ln>
-1.24620184932472

> <r_i_glide_gscore>
-5.3569605397626

> <r_i_glide_lipo>
0

> <r_i_glide_hbond>
-0.601622951453473

> <r_i_glide_metal>
0

> <r_i_glide_rewards>
-1.2181987311342

> <r_i_glide_evdw>
-22.1008186340332

> <r_i_glide_ecoul>
-16.5052089691162

> <r_i_glide_erotb>
0.487675558125352

> <r_i_glide_esite>
-0.443992138231185

> <r_i_glide_emodel>
-67.9931235352944

> <r_i_glide_energy>
-38.6060276031494

> <r_i_glide_einternal>
2.37364721298218

> <i_i_glide_confnum>
15

> <i_i_glide_posenum>
316

> <r_i_glide_eff_state_penalty>
0.2033

> <r_glide_res:A132_vdw>
-1.6905387569334

> <r_glide_res:A132_coul>
-21.9322256773648

> <r_glide_res:A132_hbond>
-0.0247540145305212

> <r_glide_res:A132_dist>
2.38305229756597

> <r_glide_res:A132_Eint>
-23.6475184488287

> <r_glide_res:A117_vdw>
-3.32582841738998

> <r_glide_res:A117_coul>
-15.2108034342545

> <r_glide_res:A117_hbond>
0

> <r_glide_res:A117_dist>
2.28803361511483

> <r_glide_res:A117_Eint>
-18.5366318516445

> <r_glide_res:A113_vdw>
-2.52023268384709

> <r_glide_res:A113_coul>
-27.8147931139649

> <r_glide_res:A113_hbond>
-0.183991487953471

> <r_glide_res:A113_dist>
2.01506836614557

> <r_glide_res:A113_Eint>
-30.5190172857654

> <r_glide_res:A82_vdw>
-0.691014955184256

> <r_glide_res:A82_coul>
-29.8318688036828

> <r_glide_res:A82_hbond>
-0.36

> <r_glide_res:A82_dist>
1.92199147782108

> <r_glide_res:A82_Eint>
-30.8828837588671

> <r_glide_res:A42_vdw>
-2.23822869684138

> <r_glide_res:A42_coul>
-9.5853982531687

> <r_glide_res:A42_hbond>
0

> <r_glide_res:A42_dist>
1.9484643188995

> <r_glide_res:A42_Eint>
-11.8236269500101

> <r_glide_res:A16_vdw>
-0.217612989934539

> <r_glide_res:A16_coul>
4.13984441142096

> <r_glide_res:A16_hbond>
0

> <r_glide_res:A16_dist>
4.34104758755705

> <r_glide_res:A16_Eint>
3.92223142148642

> <s_m_source_file>
ligprep_Nicaido_neutral.maegz

> <i_m_source_file_index>
19

> <i_lp_mmshare_version>
58128

> <i_f3d_flags>
0

> <s_lp_Force_Field>
S-OPLS

> <r_lp_Energy>
30.580191

> <b_lp_Chiralities_Consistent>
1

> <s_lp_Variant>
Cyclacillin-1

> <s_epik_input>
W09IXUMoPU8pW0NAQEhdMUMoW0NIM10pKFtDSDNdKVNbQ0BASF0oTjEyKVtDQEhdKEMyPU8pW05IXUMoPU8pQzMoW05IMl0pW0NIMl1bQ0gyXVtDSDJdW0NIMl1bQ0gyXTM=

> <s_epik_cmdline>
J2VwaWtfcHl0aG9uJywgJy1waHQnLCAnMC4wJywgJy1waCcsICc3LjQnLCAnLW50JywgJy1tYScsICc1MDAnLCAnLWltYWUnLCAnPGluZmlsZS5tYWU+JywgJy1vbWFlJywgJzxvdXRmaWxlLm1hZT4n

> <r_epik_Ionization_Penalty>
  0.2033

> <r_epik_Ionization_Penalty_Charging>
  0.2033

> <r_epik_Ionization_Penalty_Neutral>
  0.0000

> <r_epik_State_Penalty>
  0.2033

> <r_epik_Charging_Adjusted_Penalty>
0.406545099244061

> <i_epik_Tot_Q>
0

> <i_epik_Tot_abs_Q>
2

> <s_epik_Chemistry_Notes>
This compound contains an acetal/aminal-like group ( X-CH(R)-Y where X, Y are N, S, or O) that may be acid/base labile, releasing an aldehyde.

> <s_m_subgroup_title>
glide-dock_Nicaido_neutral_pv1

> <s_m_subgroupid>
glide-dock_Nicaido_neutral_pv1

> <b_m_subgroup_collapsed>
0

$$$$
Cephaloridine
                    3D
 Schrodinger Suite 2022-2.
 45 48  0  0  1  0            999 V2000
  -27.3797  -21.2319  -25.6131 O   0  0  0  0  0  0
  -27.6153  -20.5896  -24.6126 C   0  0  0  0  0  0
  -27.1017  -19.3205  -23.9012 C   0  0  2  0  0  0
  -25.6400  -19.1492  -23.9227 N   0  0  0  0  0  0
  -24.6550  -20.0178  -23.6374 C   0  0  0  0  0  0
  -23.2296  -19.4620  -23.6953 C   0  0  0  0  0  0
  -22.5001  -19.9429  -24.9102 C   0  0  0  0  0  0
  -21.6091  -20.9821  -25.0073 C   0  0  0  0  0  0
  -21.0819  -21.1490  -26.3226 C   0  0  0  0  0  0
  -21.5778  -20.2342  -27.2123 C   0  0  0  0  0  0
  -22.7046  -19.1503  -26.4501 S   0  0  0  0  0  0
  -24.8405  -21.1978  -23.3356 O   0  0  0  0  0  0
  -27.6809  -19.9917  -22.6281 C   0  0  2  0  0  0
  -28.4931  -20.7659  -23.5590 N   0  0  0  0  0  0
  -29.3700  -21.7181  -23.0353 C   0  0  0  0  0  0
  -29.2648  -23.1498  -23.6085 C   0  0  0  0  0  0
  -28.8820  -24.0377  -22.8120 O   0  5  0  0  0  0
  -29.5655  -23.2923  -24.8135 O   0  0  0  0  0  0
  -30.2819  -21.3388  -22.1124 C   0  0  0  0  0  0
  -31.3273  -22.2637  -21.4959 C   0  0  0  0  0  0
  -32.6713  -21.9058  -21.9833 N   0  3  0  0  0  0
  -33.0292  -22.2649  -23.2429 C   0  0  0  0  0  0
  -34.3087  -21.9470  -23.7433 C   0  0  0  0  0  0
  -35.2157  -21.2516  -22.9186 C   0  0  0  0  0  0
  -34.8199  -20.8924  -21.6152 C   0  0  0  0  0  0
  -33.5269  -21.2366  -21.1729 C   0  0  0  0  0  0
  -30.3795  -19.8762  -21.7066 C   0  0  0  0  0  0
  -28.7520  -19.1498  -21.3865 S   0  0  0  0  0  0
  -27.6388  -18.4123  -24.1801 H   0  0  0  0  0  0
  -25.3312  -18.2312  -24.2410 H   0  0  0  0  0  0
  -22.6984  -19.7673  -22.7933 H   0  0  0  0  0  0
  -23.2509  -18.3697  -23.6805 H   0  0  0  0  0  0
  -21.3176  -21.6192  -24.1856 H   0  0  0  0  0  0
  -20.3681  -21.9223  -26.5670 H   0  0  0  0  0  0
  -21.3602  -20.1206  -28.2643 H   0  0  0  0  0  0
  -26.9796  -20.6451  -22.1048 H   0  0  0  0  0  0
  -31.1720  -23.3183  -21.7194 H   0  0  0  0  0  0
  -31.3067  -22.1709  -20.4134 H   0  0  0  0  0  0
  -32.2859  -22.7939  -23.8221 H   0  0  0  0  0  0
  -34.5917  -22.2341  -24.7461 H   0  0  0  0  0  0
  -36.2017  -20.9956  -23.2792 H   0  0  0  0  0  0
  -35.4916  -20.3576  -20.9557 H   0  0  0  0  0  0
  -33.1662  -20.9893  -20.1848 H   0  0  0  0  0  0
  -30.8677  -19.3178  -22.5064 H   0  0  0  0  0  0
  -30.9891  -19.7489  -20.8136 H   0  0  0  0  0  0
  1  2  2  0  0  0
  2 14  1  0  0  0
  2  3  1  0  0  0
  3  4  1  0  0  0
  3 13  1  0  0  0
  3 29  1  0  0  0
  4  5  1  0  0  0
  4 30  1  0  0  0
  5  6  1  0  0  0
  5 12  2  0  0  0
  6  7  1  0  0  0
  6 31  1  0  0  0
  6 32  1  0  0  0
  7 11  1  0  0  0
  7  8  2  0  0  0
  8  9  1  0  0  0
  8 33  1  0  0  0
  9 10  2  0  0  0
  9 34  1  0  0  0
 10 11  1  0  0  0
 10 35  1  0  0  0
 13 28  1  0  0  0
 13 14  1  0  0  0
 13 36  1  0  0  0
 14 15  1  0  0  0
 15 16  1  0  0  0
 15 19  2  0  0  0
 16 17  1  0  0  0
 16 18  2  0  0  0
 19 20  1  0  0  0
 19 27  1  0  0  0
 20 21  1  0  0  0
 20 37  1  0  0  0
 20 38  1  0  0  0
 21 26  1  0  0  0
 21 22  2  0  0  0
 22 23  1  0  0  0
 22 39  1  0  0  0
 23 24  2  0  0  0
 23 40  1  0  0  0
 24 25  1  0  0  0
 24 41  1  0  0  0
 25 26  2  0  0  0
 25 42  1  0  0  0
 26 43  1  0  0  0
 27 28  1  0  0  0
 27 44  1  0  0  0
 27 45  1  0  0  0
M  CHG  2  17  -1  21   1
M  END
> <s_m_entry_id>
27389

> <s_m_entry_name>
data_maestro.13

> <s_m_Source_Path>
C:\Users\olshana1\Git\GramNeg-Accumulation\Gram Negative Permeation - OmpF

> <s_m_Source_File>
data_maestro.csv

> <i_m_Source_File_Index>
13

> <s_m_job_name>
glide-dock_Nicaido_neutral

> <s_i_glide_gridfile>
3POX-grid

> <i_i_glide_lignum>
18

> <i_i_glide_rotatable_bonds>
7

> <r_i_docking_score>
-5.14944992176306

> <r_i_glide_ligand_efficiency>
-0.183908925777252

> <r_i_glide_ligand_efficiency_sa>
-0.558455815224407

> <r_i_glide_ligand_efficiency_ln>
-1.18864423636243

> <r_i_glide_gscore>
-5.14944992176306

> <r_i_glide_lipo>
-0.450370841314564

> <r_i_glide_hbond>
-0.805547056933988

> <r_i_glide_metal>
0

> <r_i_glide_rewards>
-0.617853010065997

> <r_i_glide_evdw>
-26.4584274291992

> <r_i_glide_ecoul>
-13.8912887573242

> <r_i_glide_erotb>
0.571951339556603

> <r_i_glide_esite>
-0.44101566794652

> <r_i_glide_emodel>
-63.8258203728084

> <r_i_glide_energy>
-40.3497161865234

> <r_i_glide_einternal>
7.02871036529541

> <i_i_glide_confnum>
57

> <i_i_glide_posenum>
148

> <r_i_glide_eff_state_penalty>
0

> <r_glide_res:A132_vdw>
-0.941048954044024

> <r_glide_res:A132_coul>
-12.2449608223907

> <r_glide_res:A132_hbond>
0

> <r_glide_res:A132_dist>
2.92152950486873

> <r_glide_res:A132_Eint>
-13.1860097764347

> <r_glide_res:A117_vdw>
-3.01155943580587

> <r_glide_res:A117_coul>
-5.99049807257456

> <r_glide_res:A117_hbond>
-0.16

> <r_glide_res:A117_dist>
1.9318602001974

> <r_glide_res:A117_Eint>
-9.16205750838043

> <r_glide_res:A113_vdw>
-2.8218703516397

> <r_glide_res:A113_coul>
-16.9520746553161

> <r_glide_res:A113_hbond>
0

> <r_glide_res:A113_dist>
2.16293299181687

> <r_glide_res:A113_Eint>
-19.7739450069558

> <r_glide_res:A82_vdw>
-0.0287436170790924

> <r_glide_res:A82_coul>
-26.7992003087531

> <r_glide_res:A82_hbond>
-0.285547056933988

> <r_glide_res:A82_dist>
1.88626386107514

> <r_glide_res:A82_Eint>
-27.1134909827661

> <r_glide_res:A42_vdw>
-0.396829463931283

> <r_glide_res:A42_coul>
-30.6049003376456

> <r_glide_res:A42_hbond>
-0.36

> <r_glide_res:A42_dist>
1.87277558261795

> <r_glide_res:A42_Eint>
-31.3617298015769

> <r_glide_res:A16_vdw>
-0.585559197079659

> <r_glide_res:A16_coul>
-8.34412860557185

> <r_glide_res:A16_hbond>
0

> <r_glide_res:A16_dist>
3.84353462810673

> <r_glide_res:A16_Eint>
-8.92968780265151

> <s_m_source_file>
ligprep_Nicaido_neutral.maegz

> <i_m_source_file_index>
13

> <i_lp_mmshare_version>
58128

> <i_f3d_flags>
0

> <s_lp_Force_Field>
S-OPLS

> <r_lp_Energy>
50.740529

> <b_lp_Chiralities_Consistent>
1

> <s_lp_Variant>
Cephaloridine-1

> <s_epik_input>
czFbY0hdW2NIXVtjSF1jMVtDSDJdQyg9TylbTkhdW0NASF0yQyg9TylOKFtDQEBIXTIzKUMoQyg9TylbT0hdKT1DKFtDSDJdUzMpW0NIMl1bbitdNFtjSF1bY0hdW2NIXVtjSF1bY0hdNA==

> <s_epik_cmdline>
J2VwaWtfcHl0aG9uJywgJy1waHQnLCAnMC4wJywgJy1waCcsICc3LjQnLCAnLW50JywgJy1tYScsICc1MDAnLCAnLWltYWUnLCAnPGluZmlsZS5tYWU+JywgJy1vbWFlJywgJzxvdXRmaWxlLm1hZT4n

> <r_lp_tautomer_probability>
1

> <r_epik_Ionization_Penalty>
  0.0000

> <r_epik_Ionization_Penalty_Charging>
  0.0000

> <r_epik_Ionization_Penalty_Neutral>
  0.0000

> <r_epik_State_Penalty>
  0.0000

> <r_epik_Charging_Adjusted_Penalty>
1.62498989321064e-05

> <i_epik_Tot_Q>
0

> <i_epik_Tot_abs_Q>
2

> <s_epik_Chemistry_Notes>
This compound contains an acetal/aminal-like group ( X-CH(R)-Y where X, Y are N, S, or O) that may be acid/base labile, releasing an aldehyde.

> <s_m_subgroup_title>
glide-dock_Nicaido_neutral_pv1

> <s_m_subgroupid>
glide-dock_Nicaido_neutral_pv1

> <b_m_subgroup_collapsed>
0

$$$$
Cefacetrile
                    3D
 Schrodinger Suite 2022-2.
 35 36  0  0  1  0            999 V2000
  -28.3693  -23.6423  -17.6136 C   0  0  0  0  0  0
  -27.5393  -23.4133  -18.8555 C   0  0  0  0  0  0
  -27.4120  -22.1205  -19.1445 O   0  0  0  0  0  0
  -26.8750  -21.7276  -20.3923 C   0  0  0  0  0  0
  -27.9881  -21.2437  -21.3056 C   0  0  0  0  0  0
  -28.5883  -22.0138  -22.2538 C   0  0  0  0  0  0
  -29.6166  -21.5029  -23.0614 N   0  0  0  0  0  0
  -30.5165  -20.4526  -22.6235 C   0  0  2  0  0  0
  -31.1471  -20.4927  -24.0298 C   0  0  2  0  0  0
  -30.1980  -21.6911  -24.3032 C   0  0  0  0  0  0
  -29.9552  -22.4573  -25.2145 O   0  0  0  0  0  0
  -30.8045  -19.2772  -24.7695 N   0  0  0  0  0  0
  -31.2204  -18.9514  -25.9970 C   0  0  0  0  0  0
  -30.6938  -17.6387  -26.5788 C   0  0  0  0  0  0
  -30.2852  -17.8061  -27.9803 C   0  0  0  0  0  0
  -29.9691  -17.9539  -29.0846 N   0  0  0  0  0  0
  -31.9701  -19.6686  -26.6596 O   0  0  0  0  0  0
  -29.5597  -19.0056  -22.0871 S   0  0  0  0  0  0
  -28.3695  -19.7995  -20.9781 C   0  0  0  0  0  0
  -28.3013  -23.5538  -22.4343 C   0  0  0  0  0  0
  -27.1222  -23.9439  -22.6000 O   0  5  0  0  0  0
  -29.2925  -24.3200  -22.4165 O   0  0  0  0  0  0
  -27.0629  -24.3495  -19.4947 O   0  0  0  0  0  0
  -27.9583  -23.0301  -16.8135 H   0  0  0  0  0  0
  -29.4047  -23.3430  -17.7835 H   0  0  0  0  0  0
  -28.3504  -24.6894  -17.3084 H   0  0  0  0  0  0
  -26.2810  -22.5113  -20.8589 H   0  0  0  0  0  0
  -26.1781  -20.9070  -20.2214 H   0  0  0  0  0  0
  -31.1832  -20.8071  -21.8340 H   0  0  0  0  0  0
  -32.2124  -20.7257  -24.0069 H   0  0  0  0  0  0
  -30.1911  -18.6359  -24.2811 H   0  0  0  0  0  0
  -29.8352  -17.2700  -26.0158 H   0  0  0  0  0  0
  -31.4720  -16.8768  -26.5345 H   0  0  0  0  0  0
  -28.7835  -19.7830  -19.9703 H   0  0  0  0  0  0
  -27.4776  -19.1736  -20.9539 H   0  0  0  0  0  0
  1  2  1  0  0  0
  1 24  1  0  0  0
  1 25  1  0  0  0
  1 26  1  0  0  0
  2  3  1  0  0  0
  2 23  2  0  0  0
  3  4  1  0  0  0
  4  5  1  0  0  0
  4 27  1  0  0  0
  4 28  1  0  0  0
  5 19  1  0  0  0
  5  6  2  0  0  0
  6  7  1  0  0  0
  6 20  1  0  0  0
  7 10  1  0  0  0
  7  8  1  0  0  0
  8  9  1  0  0  0
  8 18  1  0  0  0
  8 29  1  0  0  0
  9 10  1  0  0  0
  9 12  1  0  0  0
  9 30  1  0  0  0
 10 11  2  0  0  0
 12 13  1  0  0  0
 12 31  1  0  0  0
 13 14  1  0  0  0
 13 17  2  0  0  0
 14 15  1  0  0  0
 14 32  1  0  0  0
 14 33  1  0  0  0
 15 16  3  0  0  0
 18 19  1  0  0  0
 19 34  1  0  0  0
 19 35  1  0  0  0
 20 21  1  0  0  0
 20 22  2  0  0  0
M  CHG  1  21  -1
M  END
> <s_m_entry_id>
27390

> <s_m_entry_name>
data_maestro.1

> <s_m_Source_Path>
C:\Users\olshana1\Git\GramNeg-Accumulation\Gram Negative Permeation - OmpF

> <s_m_Source_File>
data_maestro.csv

> <i_m_Source_File_Index>
1

> <s_m_job_name>
glide-dock_Nicaido_neutral

> <s_i_glide_gridfile>
3POX-grid

> <i_i_glide_lignum>
1

> <i_i_glide_rotatable_bonds>
7

> <r_i_docking_score>
-5.1483535763131

> <r_i_glide_ligand_efficiency>
-0.2238414598397

> <r_i_glide_ligand_efficiency_sa>
-0.636575335694567

> <r_i_glide_ligand_efficiency_ln>
-1.24491857744175

> <r_i_glide_gscore>
-5.1483535763131

> <r_i_glide_lipo>
0

> <r_i_glide_hbond>
-0.851696291216534

> <r_i_glide_metal>
0

> <r_i_glide_rewards>
-1.14680750226437

> <r_i_glide_evdw>
-22.4108486175537

> <r_i_glide_ecoul>
-14.4820947647095

> <r_i_glide_erotb>
0.660867222788296

> <r_i_glide_esite>
-0.517860360036387

> <r_i_glide_emodel>
-62.0996433519152

> <r_i_glide_energy>
-36.8929433822632

> <r_i_glide_einternal>
1.72552645206451

> <i_i_glide_confnum>
36

> <i_i_glide_posenum>
366

> <r_i_glide_eff_state_penalty>
0

> <r_glide_res:A132_vdw>
-1.5441929920464

> <r_glide_res:A132_coul>
-44.7997696777451

> <r_glide_res:A132_hbond>
-0.19482613330983

> <r_glide_res:A132_dist>
2.04686368376416

> <r_glide_res:A132_Eint>
-46.5387888031013

> <r_glide_res:A117_vdw>
-2.7352747085981

> <r_glide_res:A117_coul>
17.6640979261494

> <r_glide_res:A117_hbond>
0

> <r_glide_res:A117_dist>
2.50248254588716

> <r_glide_res:A117_Eint>
14.9288232175513

> <r_glide_res:A113_vdw>
-3.39584081693233

> <r_glide_res:A113_coul>
20.4448136173614

> <r_glide_res:A113_hbond>
0

> <r_glide_res:A113_dist>
2.3087053030009

> <r_glide_res:A113_Eint>
17.0489728004291

> <r_glide_res:A82_vdw>
2.4341248731812

> <r_glide_res:A82_coul>
-57.9469344301925

> <r_glide_res:A82_hbond>
-0.4

> <r_glide_res:A82_dist>
1.68347350870001

> <r_glide_res:A82_Eint>
-55.9128095570113

> <r_glide_res:A42_vdw>
-1.35560460991867

> <r_glide_res:A42_coul>
-38.2504252025764

> <r_glide_res:A42_hbond>
-0.16

> <r_glide_res:A42_dist>
2.07577869362684

> <r_glide_res:A42_Eint>
-39.7660298124951

> <r_glide_res:A16_vdw>
-0.970641455327655

> <r_glide_res:A16_coul>
-35.465582256239

> <r_glide_res:A16_hbond>
-0.0968701579067036

> <r_glide_res:A16_dist>
2.25782460523324

> <r_glide_res:A16_Eint>
-36.5330938694734

> <s_m_source_file>
ligprep_Nicaido_neutral.maegz

> <i_m_source_file_index>
1

> <i_lp_mmshare_version>
58128

> <i_f3d_flags>
0

> <s_lp_Force_Field>
S-OPLS

> <r_lp_Energy>
24.277434

> <b_lp_Chiralities_Consistent>
1

> <s_lp_Variant>
Cefacetrile-1

> <s_epik_input>
W0NIM11DKD1PKU9bQ0gyXUMoPUMxQyg9TylbT0hdKVtDSDJdU1tDQEhdKE4xMilbQ0BIXShDMj1PKVtOSF1DKD1PKVtDSDJdQyNO

> <s_epik_cmdline>
J2VwaWtfcHl0aG9uJywgJy1waHQnLCAnMC4wJywgJy1waCcsICc3LjQnLCAnLW50JywgJy1tYScsICc1MDAnLCAnLWltYWUnLCAnPGluZmlsZS5tYWU+JywgJy1vbWFlJywgJzxvdXRmaWxlLm1hZT4n

> <r_lp_tautomer_probability>
1

> <r_epik_Ionization_Penalty>
  0.0000

> <r_epik_Ionization_Penalty_Charging>
  0.0000

> <r_epik_Ionization_Penalty_Neutral>
  0.0000

> <r_epik_State_Penalty>
  0.0000

> <r_epik_Charging_Adjusted_Penalty>
5.96156609429709e-06

> <i_epik_Tot_Q>
-1

> <i_epik_Tot_abs_Q>
1

> <s_epik_Chemistry_Notes>
This compound has an ester and may undergo hydrolysis at high or low pH. This compound contains an acetal/aminal-like group ( X-CH(R)-Y where X, Y are N, S, or O) that may be acid/base labile, releasing an aldehyde.

> <s_m_subgroup_title>
glide-dock_Nicaido_neutral_pv1

> <s_m_subgroupid>
glide-dock_Nicaido_neutral_pv1

> <b_m_subgroup_collapsed>
0

$$$$
Cephaloridine
                    3D
 Schrodinger Suite 2022-2.
 45 48  0  0  1  0            999 V2000
  -27.5687  -21.5517  -25.3640 O   0  0  0  0  0  0
  -27.7827  -20.8741  -24.3827 C   0  0  0  0  0  0
  -27.3930  -19.4726  -23.8568 C   0  0  2  0  0  0
  -25.9477  -19.1794  -23.8845 N   0  0  0  0  0  0
  -24.9270  -19.9595  -23.4799 C   0  0  0  0  0  0
  -23.5108  -19.4363  -23.7269 C   0  0  0  0  0  0
  -22.9657  -19.8784  -25.0524 C   0  0  0  0  0  0
  -22.4101  -19.0825  -26.0217 C   0  0  0  0  0  0
  -21.9689  -19.8075  -27.1644 C   0  0  0  0  0  0
  -22.1933  -21.1534  -27.0555 C   0  0  0  0  0  0
  -22.9467  -21.5587  -25.5411 S   0  0  0  0  0  0
  -25.0743  -21.0601  -22.9485 O   0  0  0  0  0  0
  -27.9612  -19.9631  -22.5029 C   0  0  2  0  0  0
  -28.5375  -21.0784  -23.2431 N   0  0  0  0  0  0
  -29.2946  -22.0511  -22.5672 C   0  0  0  0  0  0
  -28.7854  -23.5473  -22.6032 C   0  0  0  0  0  0
  -27.5691  -23.7561  -22.8133 O   0  5  0  0  0  0
  -29.6309  -24.4431  -22.4134 O   0  0  0  0  0  0
  -30.3765  -21.6065  -21.8755 C   0  0  0  0  0  0
  -31.3435  -22.4625  -21.0560 C   0  0  0  0  0  0
  -32.7146  -22.3842  -21.5789 N   0  3  0  0  0  0
  -33.6486  -21.6543  -20.9168 C   0  0  0  0  0  0
  -34.9666  -21.5680  -21.4040 C   0  0  0  0  0  0
  -35.3079  -22.2542  -22.5862 C   0  0  0  0  0  0
  -34.3222  -23.0125  -23.2485 C   0  0  0  0  0  0
  -33.0178  -23.0617  -22.7140 C   0  0  0  0  0  0
  -30.7344  -20.1225  -21.9078 C   0  0  0  0  0  0
  -29.2910  -19.0647  -21.6134 S   0  0  0  0  0  0
  -27.9906  -18.6618  -24.2755 H   0  0  0  0  0  0
  -25.6888  -18.2932  -24.3098 H   0  0  0  0  0  0
  -22.8588  -19.7898  -22.9274 H   0  0  0  0  0  0
  -23.5113  -18.3484  -23.6619 H   0  0  0  0  0  0
  -22.3116  -18.0084  -25.9550 H   0  0  0  0  0  0
  -21.5162  -19.3191  -28.0130 H   0  0  0  0  0  0
  -21.9689  -21.9296  -27.7724 H   0  0  0  0  0  0
  -27.2103  -20.3163  -21.7945 H   0  0  0  0  0  0
  -31.1038  -23.5107  -20.9213 H   0  0  0  0  0  0
  -31.3606  -22.0581  -20.0649 H   0  0  0  0  0  0
  -33.3302  -21.1500  -20.0140 H   0  0  0  0  0  0
  -35.7007  -20.9799  -20.8701 H   0  0  0  0  0  0
  -36.3145  -22.2015  -22.9755 H   0  0  0  0  0  0
  -34.5641  -23.5502  -24.1535 H   0  0  0  0  0  0
  -32.2119  -23.6228  -23.1650 H   0  0  0  0  0  0
  -31.1709  -19.8785  -22.8771 H   0  0  0  0  0  0
  -31.4732  -19.8707  -21.1479 H   0  0  0  0  0  0
  1  2  2  0  0  0
  2 14  1  0  0  0
  2  3  1  0  0  0
  3  4  1  0  0  0
  3 13  1  0  0  0
  3 29  1  0  0  0
  4  5  1  0  0  0
  4 30  1  0  0  0
  5  6  1  0  0  0
  5 12  2  0  0  0
  6  7  1  0  0  0
  6 31  1  0  0  0
  6 32  1  0  0  0
  7 11  1  0  0  0
  7  8  2  0  0  0
  8  9  1  0  0  0
  8 33  1  0  0  0
  9 10  2  0  0  0
  9 34  1  0  0  0
 10 11  1  0  0  0
 10 35  1  0  0  0
 13 28  1  0  0  0
 13 14  1  0  0  0
 13 36  1  0  0  0
 14 15  1  0  0  0
 15 16  1  0  0  0
 15 19  2  0  0  0
 16 17  1  0  0  0
 16 18  2  0  0  0
 19 20  1  0  0  0
 19 27  1  0  0  0
 20 21  1  0  0  0
 20 37  1  0  0  0
 20 38  1  0  0  0
 21 26  1  0  0  0
 21 22  2  0  0  0
 22 23  1  0  0  0
 22 39  1  0  0  0
 23 24  2  0  0  0
 23 40  1  0  0  0
 24 25  1  0  0  0
 24 41  1  0  0  0
 25 26  2  0  0  0
 25 42  1  0  0  0
 26 43  1  0  0  0
 27 28  1  0  0  0
 27 44  1  0  0  0
 27 45  1  0  0  0
M  CHG  2  17  -1  21   1
M  END
> <s_m_entry_id>
27391

> <s_m_entry_name>
data_maestro.13

> <s_m_Source_Path>
C:\Users\olshana1\Git\GramNeg-Accumulation\Gram Negative Permeation - OmpF

> <s_m_Source_File>
data_maestro.csv

> <i_m_Source_File_Index>
13

> <s_m_job_name>
glide-dock_Nicaido_neutral

> <s_i_glide_gridfile>
3POX-grid

> <i_i_glide_lignum>
18

> <i_i_glide_rotatable_bonds>
7

> <r_i_docking_score>
-5.14335117833102

> <r_i_glide_ligand_efficiency>
-0.183691113511822

> <r_i_glide_ligand_efficiency_sa>
-0.557794408901998

> <r_i_glide_ligand_efficiency_ln>
-1.18723646731142

> <r_i_glide_gscore>
-5.14335117833102

> <r_i_glide_lipo>
-0.37341853941886

> <r_i_glide_hbond>
-0.72

> <r_i_glide_metal>
0

> <r_i_glide_rewards>
-0.617814677435954

> <r_i_glide_evdw>
-22.1858215332031

> <r_i_glide_ecoul>
-16.3837757110596

> <r_i_glide_erotb>
0.571951339556603

> <r_i_glide_esite>
-0.43721186771372

> <r_i_glide_emodel>
-62.8618791782813

> <r_i_glide_energy>
-38.5695972442627

> <r_i_glide_einternal>
5.33220338821411

> <i_i_glide_confnum>
57

> <i_i_glide_posenum>
135

> <r_i_glide_eff_state_penalty>
0

> <r_glide_res:A132_vdw>
-1.40235040103012

> <r_glide_res:A132_coul>
-17.8378161709496

> <r_glide_res:A132_hbond>
0

> <r_glide_res:A132_dist>
2.68402952283245

> <r_glide_res:A132_Eint>
-19.2401665719798

> <r_glide_res:A117_vdw>
-4.43670380130443

> <r_glide_res:A117_coul>
-6.83343221857345

> <r_glide_res:A117_hbond>
-0.16

> <r_glide_res:A117_dist>
2.09392906489234

> <r_glide_res:A117_Eint>
-11.4301360198779

> <r_glide_res:A113_vdw>
-0.0495567964687206

> <r_glide_res:A113_coul>
-16.3441921963911

> <r_glide_res:A113_hbond>
0

> <r_glide_res:A113_dist>
1.92239411498102

> <r_glide_res:A113_Eint>
-16.3937489928599

> <r_glide_res:A82_vdw>
2.65945740464076

> <r_glide_res:A82_coul>
-34.2693783358371

> <r_glide_res:A82_hbond>
-0.4

> <r_glide_res:A82_dist>
1.6715164164265

> <r_glide_res:A82_Eint>
-32.0099209311963

> <r_glide_res:A42_vdw>
-0.811954089532356

> <r_glide_res:A42_coul>
-20.3984455142666

> <r_glide_res:A42_hbond>
-0.16

> <r_glide_res:A42_dist>
1.80658843972645

> <r_glide_res:A42_Eint>
-21.370399603799

> <r_glide_res:A16_vdw>
-0.430823963772008

> <r_glide_res:A16_coul>
-2.76016691652835

> <r_glide_res:A16_hbond>
0

> <r_glide_res:A16_dist>
3.89433386108847

> <r_glide_res:A16_Eint>
-3.19099088030036

> <s_m_source_file>
ligprep_Nicaido_neutral.maegz

> <i_m_source_file_index>
13

> <i_lp_mmshare_version>
58128

> <i_f3d_flags>
0

> <s_lp_Force_Field>
S-OPLS

> <r_lp_Energy>
50.740529

> <b_lp_Chiralities_Consistent>
1

> <s_lp_Variant>
Cephaloridine-1

> <s_epik_input>
czFbY0hdW2NIXVtjSF1jMVtDSDJdQyg9TylbTkhdW0NASF0yQyg9TylOKFtDQEBIXTIzKUMoQyg9TylbT0hdKT1DKFtDSDJdUzMpW0NIMl1bbitdNFtjSF1bY0hdW2NIXVtjSF1bY0hdNA==

> <s_epik_cmdline>
J2VwaWtfcHl0aG9uJywgJy1waHQnLCAnMC4wJywgJy1waCcsICc3LjQnLCAnLW50JywgJy1tYScsICc1MDAnLCAnLWltYWUnLCAnPGluZmlsZS5tYWU+JywgJy1vbWFlJywgJzxvdXRmaWxlLm1hZT4n

> <r_lp_tautomer_probability>
1

> <r_epik_Ionization_Penalty>
  0.0000

> <r_epik_Ionization_Penalty_Charging>
  0.0000

> <r_epik_Ionization_Penalty_Neutral>
  0.0000

> <r_epik_State_Penalty>
  0.0000

> <r_epik_Charging_Adjusted_Penalty>
1.62498989321064e-05

> <i_epik_Tot_Q>
0

> <i_epik_Tot_abs_Q>
2

> <s_epik_Chemistry_Notes>
This compound contains an acetal/aminal-like group ( X-CH(R)-Y where X, Y are N, S, or O) that may be acid/base labile, releasing an aldehyde.

> <s_m_subgroup_title>
glide-dock_Nicaido_neutral_pv1

> <s_m_subgroupid>
glide-dock_Nicaido_neutral_pv1

> <b_m_subgroup_collapsed>
0

$$$$
Nocardicin B
                    3D
 Schrodinger Suite 2022-2.
 59 61  0  0  1  0            999 V2000
  -26.9432  -23.9485  -21.3894 O   0  0  0  0  0  0
  -27.3138  -23.0833  -20.6236 C   0  0  0  0  0  0
  -28.3365  -21.9374  -20.6811 C   0  0  2  0  0  0
  -27.9683  -21.7079  -19.2138 C   0  0  0  0  0  0
  -26.9508  -22.7638  -19.3322 N   0  0  0  0  0  0
  -26.0288  -23.3226  -18.3305 C   0  0  2  0  0  0
  -25.0567  -22.2978  -17.8211 C   0  0  0  0  0  0
  -24.4864  -22.4632  -16.5374 C   0  0  0  0  0  0
  -23.5557  -21.5484  -16.0138 C   0  0  0  0  0  0
  -23.1898  -20.4141  -16.7590 C   0  0  0  0  0  0
  -23.7427  -20.2180  -18.0376 C   0  0  0  0  0  0
  -24.6541  -21.1567  -18.5616 C   0  0  0  0  0  0
  -22.3134  -19.5109  -16.2312 O   0  0  0  0  0  0
  -25.1451  -24.4929  -18.8134 C   0  0  0  0  0  0
  -25.1678  -25.5496  -18.1432 O   0  5  0  0  0  0
  -24.4812  -24.3505  -19.8661 O   0  0  0  0  0  0
  -29.7512  -22.2986  -20.8134 N   0  0  0  0  0  0
  -30.3316  -23.2919  -21.5165 C   0  0  0  0  0  0
  -31.8321  -23.1617  -21.5561 C   0  0  0  0  0  0
  -32.2790  -21.8432  -22.0781 C   0  0  0  0  0  0
  -32.7321  -20.8232  -21.2170 C   0  0  0  0  0  0
  -33.0163  -19.5385  -21.7195 C   0  0  0  0  0  0
  -32.8727  -19.2522  -23.0905 C   0  0  0  0  0  0
  -32.4963  -20.3007  -23.9662 C   0  0  0  0  0  0
  -32.1938  -21.5782  -23.4613 C   0  0  0  0  0  0
  -33.0939  -17.9496  -23.4860 O   0  0  0  0  0  0
  -32.6758  -17.5440  -24.7850 C   0  0  0  0  0  0
  -31.1345  -17.4867  -24.9121 C   0  0  0  0  0  0
  -30.6346  -17.2635  -26.3670 C   0  0  2  0  0  0
  -30.9241  -18.4833  -27.2132 C   0  0  0  0  0  0
  -30.4084  -19.5495  -26.8132 O   0  5  0  0  0  0
  -31.5748  -18.3481  -28.2698 O   0  0  0  0  0  0
  -29.1691  -17.1496  -26.4255 N   0  3  0  0  0  0
  -32.5887  -24.1309  -21.2284 N   0  0  0  0  0  0
  -33.9661  -23.7639  -21.3902 O   0  0  0  0  0  0
  -29.7475  -24.2039  -22.1124 O   0  0  0  0  0  0
  -28.0402  -21.0987  -21.3105 H   0  0  0  0  0  0
  -27.5665  -20.7128  -19.0210 H   0  0  0  0  0  0
  -28.7652  -21.9405  -18.5032 H   0  0  0  0  0  0
  -26.6571  -23.6736  -17.5136 H   0  0  0  0  0  0
  -24.7691  -23.3158  -15.9383 H   0  0  0  0  0  0
  -23.1478  -21.7029  -15.0251 H   0  0  0  0  0  0
  -23.4710  -19.3539  -18.6266 H   0  0  0  0  0  0
  -25.0468  -20.9909  -19.5527 H   0  0  0  0  0  0
  -22.2793  -18.6942  -16.7079 H   0  0  0  0  0  0
  -30.3739  -21.6991  -20.2788 H   0  0  0  0  0  0
  -32.8137  -21.0019  -20.1545 H   0  0  0  0  0  0
  -33.3149  -18.7568  -21.0373 H   0  0  0  0  0  0
  -32.3963  -20.1417  -25.0282 H   0  0  0  0  0  0
  -31.8671  -22.3501  -24.1422 H   0  0  0  0  0  0
  -33.0752  -16.5440  -24.9546 H   0  0  0  0  0  0
  -33.1410  -18.1702  -25.5448 H   0  0  0  0  0  0
  -30.6875  -18.3959  -24.5113 H   0  0  0  0  0  0
  -30.7602  -16.7162  -24.2457 H   0  0  0  0  0  0
  -31.0973  -16.3740  -26.8139 H   0  0  0  0  0  0
  -28.8797  -17.1516  -27.3927 H   0  0  0  0  0  0
  -28.8728  -16.2765  -26.0133 H   0  0  0  0  0  0
  -33.9299  -22.8177  -21.3883 H   0  0  0  0  0  0
  -28.7418  -17.9287  -25.9464 H   0  0  0  0  0  0
  1  2  2  0  0  0
  2  5  1  0  0  0
  2  3  1  0  0  0
  3  4  1  0  0  0
  3 17  1  0  0  0
  3 37  1  0  0  0
  4  5  1  0  0  0
  4 38  1  0  0  0
  4 39  1  0  0  0
  5  6  1  0  0  0
  6  7  1  0  0  0
  6 14  1  0  0  0
  6 40  1  0  0  0
  7 12  1  0  0  0
  7  8  2  0  0  0
  8  9  1  0  0  0
  8 41  1  0  0  0
  9 10  2  0  0  0
  9 42  1  0  0  0
 10 11  1  0  0  0
 10 13  1  0  0  0
 11 12  2  0  0  0
 11 43  1  0  0  0
 12 44  1  0  0  0
 13 45  1  0  0  0
 14 15  1  0  0  0
 14 16  2  0  0  0
 17 18  1  0  0  0
 17 46  1  0  0  0
 18 19  1  0  0  0
 18 36  2  0  0  0
 19 20  1  0  0  0
 19 34  2  3  0  0
 20 25  1  0  0  0
 20 21  2  0  0  0
 21 22  1  0  0  0
 21 47  1  0  0  0
 22 23  2  0  0  0
 22 48  1  0  0  0
 23 24  1  0  0  0
 23 26  1  0  0  0
 24 25  2  0  0  0
 24 49  1  0  0  0
 25 50  1  0  0  0
 26 27  1  0  0  0
 27 28  1  0  0  0
 27 51  1  0  0  0
 27 52  1  0  0  0
 28 29  1  0  0  0
 28 53  1  0  0  0
 28 54  1  0  0  0
 29 30  1  0  0  0
 29 33  1  0  0  0
 29 55  1  0  0  0
 30 31  1  0  0  0
 30 32  2  0  0  0
 33 56  1  0  0  0
 33 57  1  0  0  0
 33 59  1  0  0  0
 34 35  1  0  0  0
 35 58  1  0  0  0
M  CHG  3  15  -1  31  -1  33   1
M  END
> <s_m_entry_id>
27392

> <s_m_entry_name>
data_maestro.29

> <s_m_Source_Path>
C:\Users\olshana1\Git\GramNeg-Accumulation\Gram Negative Permeation - OmpF

> <s_m_Source_File>
data_maestro.csv

> <i_m_Source_File_Index>
29

> <s_m_job_name>
glide-dock_Nicaido_neutral

> <s_i_glide_gridfile>
3POX-grid

> <i_i_glide_lignum>
36

> <i_i_glide_rotatable_bonds>
14

> <r_i_docking_score>
-5.14321348400221

> <r_i_glide_ligand_efficiency>
-0.142867041222284

> <r_i_glide_ligand_efficiency_sa>
-0.471736575817318

> <r_i_glide_ligand_efficiency_ln>
-1.12211022863901

> <r_i_glide_gscore>
-5.14321348400221

> <r_i_glide_lipo>
-0.00663730527254259

> <r_i_glide_hbond>
-0.701357065187098

> <r_i_glide_metal>
0

> <r_i_glide_rewards>
0.00395742772943273

> <r_i_glide_evdw>
-28.9640979766846

> <r_i_glide_ecoul>
-20.6176414489746

> <r_i_glide_erotb>
0.900147327125679

> <r_i_glide_esite>
-0.798472752217261

> <r_i_glide_emodel>
-76.2798089378312

> <r_i_glide_energy>
-49.5817394256592

> <r_i_glide_einternal>
15.579927444458

> <i_i_glide_confnum>
773

> <i_i_glide_posenum>
296

> <r_i_glide_eff_state_penalty>
0

> <r_glide_res:A132_vdw>
-2.21230988109795

> <r_glide_res:A132_coul>
-51.426783764127

> <r_glide_res:A132_hbond>
-0.248864894828208

> <r_glide_res:A132_dist>
2.08772166646887

> <r_glide_res:A132_Eint>
-53.8879585400531

> <r_glide_res:A117_vdw>
-0.211964658039339

> <r_glide_res:A117_coul>
-8.54002672716421

> <r_glide_res:A117_hbond>
-0.00113520178479607

> <r_glide_res:A117_dist>
1.59310040473758

> <r_glide_res:A117_Eint>
-8.75312658698834

> <r_glide_res:A113_vdw>
-5.147064157291

> <r_glide_res:A113_coul>
5.68247579292042

> <r_glide_res:A113_hbond>
-0.0451057800031254

> <r_glide_res:A113_dist>
2.32328579096489

> <r_glide_res:A113_Eint>
0.490305855626302

> <r_glide_res:A82_vdw>
-1.55800806873571

> <r_glide_res:A82_coul>
-38.5894383802212

> <r_glide_res:A82_hbond>
-0.16

> <r_glide_res:A82_dist>
2.06253294607263

> <r_glide_res:A82_Eint>
-40.3074464489569

> <r_glide_res:A42_vdw>
-0.625118542038936

> <r_glide_res:A42_coul>
-25.1073860705693

> <r_glide_res:A42_hbond>
0

> <r_glide_res:A42_dist>
3.98260581205564

> <r_glide_res:A42_Eint>
-25.7325046126083

> <r_glide_res:A16_vdw>
6.31015534436019

> <r_glide_res:A16_coul>
-39.7262590608182

> <r_glide_res:A16_hbond>
-0.0862511885709678

> <r_glide_res:A16_dist>
2.07759449034752

> <r_glide_res:A16_Eint>
-33.5023549050289

> <s_m_source_file>
ligprep_Nicaido_neutral.maegz

> <i_m_source_file_index>
29

> <i_lp_mmshare_version>
58128

> <i_f3d_flags>
0

> <s_lp_Force_Field>
S-OPLS

> <r_lp_Energy>
60.848016

> <b_lp_Chiralities_Consistent>
1

> <s_lp_Variant>
Nocardicin B-1

> <s_epik_input>
W2NIXTFbY0hdYyhbT0hdKVtjSF1bY0hdYzFbQ0BIXShDKD1PKVtPSF0pTjJbQ0gyXVtDQEBIXShDMj1PKVtOSF1DKD1PKS9DKD1OL1tPSF0pYzNbY0hdW2NIXWMoW2NIXVtjSF0zKU9bQ0gyXVtDSDJdW0NAQEhdKFtOSDJdKUMoPU8pW09IXQ==

> <s_epik_cmdline>
J2VwaWtfcHl0aG9uJywgJy1waHQnLCAnMC4wJywgJy1waCcsICc3LjQnLCAnLW50JywgJy1tYScsICc1MDAnLCAnLWltYWUnLCAnPGluZmlsZS5tYWU+JywgJy1vbWFlJywgJzxvdXRmaWxlLm1hZT4n

> <r_lp_tautomer_probability>
1

> <r_epik_Ionization_Penalty>
  0.0116

> <r_epik_Ionization_Penalty_Charging>
  0.0086

> <r_epik_Ionization_Penalty_Neutral>
  0.0030

> <r_epik_State_Penalty>
  0.0000

> <r_epik_Charging_Adjusted_Penalty>
0.0085560600321308

> <i_epik_Tot_Q>
-1

> <i_epik_Tot_abs_Q>
3

> <s_epik_Chemistry_Notes>
This compound has an imine and may undergo hydrolysis.

> <s_m_subgroup_title>
glide-dock_Nicaido_neutral_pv1

> <s_m_subgroupid>
glide-dock_Nicaido_neutral_pv1

> <b_m_subgroup_collapsed>
0

$$$$
SCE-796
                    3D
 Schrodinger Suite 2022-2.
 54 57  0  0  1  0            999 V2000
  -29.3137  -24.1366  -22.3989 O   0  0  0  0  0  0
  -29.0786  -23.1368  -21.7503 C   0  0  0  0  0  0
  -29.0592  -22.7162  -20.2520 C   0  0  2  0  0  0
  -29.0838  -21.2762  -20.8118 C   0  0  2  0  0  0
  -28.6440  -21.8614  -22.0745 N   0  0  0  0  0  0
  -28.2002  -21.0903  -23.1618 C   0  0  0  0  0  0
  -28.6098  -21.5783  -24.5930 C   0  0  0  0  0  0
  -29.0890  -20.7348  -25.3810 O   0  5  0  0  0  0
  -28.3689  -22.7747  -24.8553 O   0  0  0  0  0  0
  -27.2981  -20.0996  -22.9499 C   0  0  0  0  0  0
  -26.7752  -19.7885  -21.5486 C   0  0  0  0  0  0
  -27.9690  -19.9515  -20.2110 S   0  0  0  0  0  0
  -26.5464  -19.3694  -24.0713 C   0  0  0  0  0  0
  -25.0937  -19.6029  -23.9406 N   0  3  0  0  0  0
  -24.5555  -20.7021  -24.5244 C   0  0  0  0  0  0
  -23.1810  -20.9873  -24.3887 C   0  0  0  0  0  0
  -22.3583  -20.1158  -23.6404 C   0  0  0  0  0  0
  -22.9522  -18.9819  -23.0405 C   0  0  0  0  0  0
  -24.3296  -18.7492  -23.2134 C   0  0  0  0  0  0
  -20.9009  -20.4265  -23.4537 C   0  0  0  0  0  0
  -20.0946  -19.3830  -23.2549 N   0  0  0  0  0  0
  -20.4804  -21.5786  -23.5293 O   0  0  0  0  0  0
  -27.8506  -22.9727  -19.4439 N   0  0  0  0  0  0
  -26.6523  -23.4811  -19.7866 C   0  0  0  0  0  0
  -25.5753  -23.4220  -18.6821 C   0  0  2  0  0  0
  -24.8360  -22.0793  -18.6935 C   0  0  0  0  0  0
  -25.0516  -21.1742  -17.6289 C   0  0  0  0  0  0
  -24.4315  -19.9101  -17.6242 C   0  0  0  0  0  0
  -23.5769  -19.5401  -18.6783 C   0  0  0  0  0  0
  -23.3488  -20.4350  -19.7405 C   0  0  0  0  0  0
  -23.9842  -21.6916  -19.7562 C   0  0  0  0  0  0
  -24.6276  -24.6385  -18.8244 C   0  0  0  0  0  0
  -23.8226  -24.7110  -19.7819 O   0  5  0  0  0  0
  -24.7683  -25.5496  -17.9837 O   0  0  0  0  0  0
  -26.4135  -23.9494  -20.9033 O   0  0  0  0  0  0
  -29.9694  -22.9679  -19.7157 H   0  0  0  0  0  0
  -30.1015  -20.8866  -20.9000 H   0  0  0  0  0  0
  -25.9295  -20.4409  -21.3376 H   0  0  0  0  0  0
  -26.4245  -18.7595  -21.4892 H   0  0  0  0  0  0
  -26.8306  -19.6621  -25.0802 H   0  0  0  0  0  0
  -26.7196  -18.3031  -24.0188 H   0  0  0  0  0  0
  -25.2372  -21.3337  -25.0743 H   0  0  0  0  0  0
  -22.7614  -21.8686  -24.8530 H   0  0  0  0  0  0
  -22.3756  -18.2838  -22.4506 H   0  0  0  0  0  0
  -24.8317  -17.8871  -22.7979 H   0  0  0  0  0  0
  -20.4679  -18.4448  -23.2563 H   0  0  0  0  0  0
  -19.1054  -19.5407  -23.1325 H   0  0  0  0  0  0
  -27.9077  -22.5988  -18.5066 H   0  0  0  0  0  0
  -26.0787  -23.5271  -17.7186 H   0  0  0  0  0  0
  -25.7112  -21.4369  -16.8139 H   0  0  0  0  0  0
  -24.6179  -19.2204  -16.8138 H   0  0  0  0  0  0
  -23.1005  -18.5709  -18.6712 H   0  0  0  0  0  0
  -22.6907  -20.1558  -20.5476 H   0  0  0  0  0  0
  -23.8163  -22.3531  -20.5935 H   0  0  0  0  0  0
  1  2  2  0  0  0
  2  5  1  0  0  0
  2  3  1  0  0  0
  3  4  1  0  0  0
  3 23  1  0  0  0
  3 36  1  0  0  0
  4 12  1  0  0  0
  4  5  1  0  0  0
  4 37  1  0  0  0
  5  6  1  0  0  0
  6  7  1  0  0  0
  6 10  2  0  0  0
  7  8  1  0  0  0
  7  9  2  0  0  0
 10 11  1  0  0  0
 10 13  1  0  0  0
 11 12  1  0  0  0
 11 38  1  0  0  0
 11 39  1  0  0  0
 13 14  1  0  0  0
 13 40  1  0  0  0
 13 41  1  0  0  0
 14 19  1  0  0  0
 14 15  2  0  0  0
 15 16  1  0  0  0
 15 42  1  0  0  0
 16 17  2  0  0  0
 16 43  1  0  0  0
 17 18  1  0  0  0
 17 20  1  0  0  0
 18 19  2  0  0  0
 18 44  1  0  0  0
 19 45  1  0  0  0
 20 21  1  0  0  0
 20 22  2  0  0  0
 21 46  1  0  0  0
 21 47  1  0  0  0
 23 24  1  0  0  0
 23 48  1  0  0  0
 24 25  1  0  0  0
 24 35  2  0  0  0
 25 26  1  0  0  0
 25 32  1  0  0  0
 25 49  1  0  0  0
 26 31  1  0  0  0
 26 27  2  0  0  0
 27 28  1  0  0  0
 27 50  1  0  0  0
 28 29  2  0  0  0
 28 51  1  0  0  0
 29 30  1  0  0  0
 29 52  1  0  0  0
 30 31  2  0  0  0
 30 53  1  0  0  0
 31 54  1  0  0  0
 32 33  1  0  0  0
 32 34  2  0  0  0
M  CHG  3   8  -1  14   1  33  -1
M  END
> <s_m_entry_id>
27393

> <s_m_entry_name>
data_maestro.28

> <s_m_Source_Path>
C:\Users\olshana1\Git\GramNeg-Accumulation\Gram Negative Permeation - OmpF

> <s_m_Source_File>
data_maestro.csv

> <i_m_Source_File_Index>
28

> <s_m_job_name>
glide-dock_Nicaido_neutral

> <s_i_glide_gridfile>
3POX-grid

> <i_i_glide_lignum>
35

> <i_i_glide_rotatable_bonds>
9

> <r_i_docking_score>
-5.14284922759153

> <r_i_glide_ligand_efficiency>
-0.146938549359758

> <r_i_glide_ligand_efficiency_sa>
-0.480645737909067

> <r_i_glide_ligand_efficiency_ln>
-1.12896954484528

> <r_i_glide_gscore>
-5.14284922759153

> <r_i_glide_lipo>
0

> <r_i_glide_hbond>
-0.804337358448376

> <r_i_glide_metal>
0

> <r_i_glide_rewards>
-0.0297804345312467

> <r_i_glide_evdw>
-28.6693496704102

> <r_i_glide_ecoul>
-17.5814018249512

> <r_i_glide_erotb>
0.415177540389138

> <r_i_glide_esite>
-0.653231217737865

> <r_i_glide_emodel>
-75.3156558454164

> <r_i_glide_energy>
-46.2507514953613

> <r_i_glide_einternal>
11.467041015625

> <i_i_glide_confnum>
63

> <i_i_glide_posenum>
116

> <r_i_glide_eff_state_penalty>
0

> <r_glide_res:A132_vdw>
-1.87892959673069

> <r_glide_res:A132_coul>
-50.0561418350369

> <r_glide_res:A132_hbond>
-0.16

> <r_glide_res:A132_dist>
1.83236127715214

> <r_glide_res:A132_Eint>
-52.0950714317676

> <r_glide_res:A117_vdw>
-3.84563065732067

> <r_glide_res:A117_coul>
-5.12239297612594

> <r_glide_res:A117_hbond>
0

> <r_glide_res:A117_dist>
2.19837350377079

> <r_glide_res:A117_Eint>
-8.96802363344661

> <r_glide_res:A113_vdw>
-2.3377699632895

> <r_glide_res:A113_coul>
14.5343952297302

> <r_glide_res:A113_hbond>
0

> <r_glide_res:A113_dist>
2.24299286606924

> <r_glide_res:A113_Eint>
12.1966252664407

> <r_glide_res:A82_vdw>
-1.75790213937654

> <r_glide_res:A82_coul>
-46.1643143888283

> <r_glide_res:A82_hbond>
-0.16

> <r_glide_res:A82_dist>
1.91865573076334

> <r_glide_res:A82_Eint>
-48.0822165282048

> <r_glide_res:A42_vdw>
-0.49170954918432

> <r_glide_res:A42_coul>
-41.2658486955729

> <r_glide_res:A42_hbond>
-0.324337358448376

> <r_glide_res:A42_dist>
2.01330965806511

> <r_glide_res:A42_Eint>
-42.0818956032056

> <r_glide_res:A16_vdw>
-0.535567266238783

> <r_glide_res:A16_coul>
-29.1212777426799

> <r_glide_res:A16_hbond>
0

> <r_glide_res:A16_dist>
3.02161425157455

> <r_glide_res:A16_Eint>
-29.6568450089186

> <s_m_source_file>
ligprep_Nicaido_neutral.maegz

> <i_m_source_file_index>
28

> <i_lp_mmshare_version>
58128

> <i_f3d_flags>
0

> <s_lp_Force_Field>
S-OPLS

> <r_lp_Energy>
64.89814

> <b_lp_Chiralities_Consistent>
1

> <s_lp_Variant>
SCE-796-1

> <s_epik_input>
W2NIXTFbY0hdW2NIXVtjSF1bY0hdYzFbQ0BIXShDKD1PKVtPSF0pQyg9TylbTkhdW0NAQEhdMkMoPU8pTihbQ0BASF0yMylDKEMoPU8pW09IXSk9QyhbQ0gyXVMzKVtDSDJdW24rXTRbY0hdW2NIXWMoW2NIXVtjSF00KUMoPU8pW05IMl0=

> <s_epik_cmdline>
J2VwaWtfcHl0aG9uJywgJy1waHQnLCAnMC4wJywgJy1waCcsICc3LjQnLCAnLW50JywgJy1tYScsICc1MDAnLCAnLWltYWUnLCAnPGluZmlsZS5tYWU+JywgJy1vbWFlJywgJzxvdXRmaWxlLm1hZT4n

> <r_lp_tautomer_probability>
1

> <r_epik_Ionization_Penalty>
  0.0010

> <r_epik_Ionization_Penalty_Charging>
  0.0001

> <r_epik_Ionization_Penalty_Neutral>
  0.0010

> <r_epik_State_Penalty>
  0.0000

> <r_epik_Charging_Adjusted_Penalty>
5.79311335039239e-05

> <i_epik_Tot_Q>
-1

> <i_epik_Tot_abs_Q>
3

> <s_epik_Chemistry_Notes>
This compound contains an acetal/aminal-like group ( X-CH(R)-Y where X, Y are N, S, or O) that may be acid/base labile, releasing an aldehyde.

> <s_m_subgroup_title>
glide-dock_Nicaido_neutral_pv1

> <s_m_subgroupid>
glide-dock_Nicaido_neutral_pv1

> <b_m_subgroup_collapsed>
0

$$$$
Cephalosporin C
                    3D
 Schrodinger Suite 2022-2.
 45 46  0  0  1  0            999 V2000
  -19.1310  -24.2261  -16.0132 O   0  0  0  0  0  0
  -19.5793  -23.1488  -15.6135 C   0  0  0  0  0  0
  -20.6028  -22.4572  -16.1502 O   0  0  0  0  0  0
  -21.1979  -22.8718  -17.3733 C   0  0  0  0  0  0
  -22.6880  -22.5260  -17.4371 C   0  0  0  0  0  0
  -23.6473  -23.3759  -17.9032 C   0  0  0  0  0  0
  -25.0043  -23.0016  -18.0014 N   0  0  0  0  0  0
  -25.5667  -21.9168  -17.2201 C   0  0  2  0  0  0
  -26.9206  -22.1858  -17.9102 C   0  0  2  0  0  0
  -26.2076  -23.4031  -18.5663 C   0  0  0  0  0  0
  -26.5173  -24.3496  -19.2627 O   0  0  0  0  0  0
  -27.3008  -21.0646  -18.7773 N   0  0  0  0  0  0
  -27.9201  -21.1009  -19.9660 C   0  0  0  0  0  0
  -28.2916  -19.7299  -20.5456 C   0  0  0  0  0  0
  -28.6007  -19.7162  -22.0535 C   0  0  0  0  0  0
  -27.3377  -19.7670  -22.9265 C   0  0  0  0  0  0
  -27.6367  -19.5854  -24.4348 C   0  0  2  0  0  0
  -28.1465  -20.8794  -25.1037 C   0  0  0  0  0  0
  -29.0669  -20.7891  -25.9491 O   0  5  0  0  0  0
  -27.5691  -21.9515  -24.8147 O   0  0  0  0  0  0
  -26.4195  -19.1496  -25.1398 N   0  3  0  0  0  0
  -28.1868  -22.1419  -20.5695 O   0  0  0  0  0  0
  -24.5582  -20.4332  -17.5258 S   0  0  0  0  0  0
  -22.9849  -21.1114  -16.9404 C   0  0  0  0  0  0
  -23.2953  -24.8067  -18.4294 C   0  0  0  0  0  0
  -22.7060  -25.5495  -17.6134 O   0  5  0  0  0  0
  -23.6422  -25.0986  -19.5964 O   0  0  0  0  0  0
  -19.2183  -22.6202  -14.7317 H   0  0  0  0  0  0
  -21.0075  -23.9251  -17.5621 H   0  0  0  0  0  0
  -20.6991  -22.3309  -18.1776 H   0  0  0  0  0  0
  -25.5686  -22.1758  -16.1594 H   0  0  0  0  0  0
  -27.7011  -22.4546  -17.1985 H   0  0  0  0  0  0
  -27.1477  -20.1444  -18.3841 H   0  0  0  0  0  0
  -27.5048  -19.0079  -20.3188 H   0  0  0  0  0  0
  -29.1688  -19.3727  -20.0134 H   0  0  0  0  0  0
  -29.1431  -18.7970  -22.2756 H   0  0  0  0  0  0
  -29.2797  -20.5291  -22.3135 H   0  0  0  0  0  0
  -26.7920  -20.6906  -22.7311 H   0  0  0  0  0  0
  -26.6613  -18.9793  -22.5977 H   0  0  0  0  0  0
  -28.3730  -18.7894  -24.5645 H   0  0  0  0  0  0
  -26.6416  -18.9715  -26.1056 H   0  0  0  0  0  0
  -26.0628  -18.2915  -24.7370 H   0  0  0  0  0  0
  -22.9836  -21.1176  -15.8495 H   0  0  0  0  0  0
  -22.1931  -20.4328  -17.2616 H   0  0  0  0  0  0
  -25.7185  -19.8716  -25.0767 H   0  0  0  0  0  0
  1  2  2  0  0  0
  2  3  1  0  0  0
  2 28  1  0  0  0
  3  4  1  0  0  0
  4  5  1  0  0  0
  4 29  1  0  0  0
  4 30  1  0  0  0
  5 24  1  0  0  0
  5  6  2  0  0  0
  6  7  1  0  0  0
  6 25  1  0  0  0
  7 10  1  0  0  0
  7  8  1  0  0  0
  8  9  1  0  0  0
  8 23  1  0  0  0
  8 31  1  0  0  0
  9 10  1  0  0  0
  9 12  1  0  0  0
  9 32  1  0  0  0
 10 11  2  0  0  0
 12 13  1  0  0  0
 12 33  1  0  0  0
 13 14  1  0  0  0
 13 22  2  0  0  0
 14 15  1  0  0  0
 14 34  1  0  0  0
 14 35  1  0  0  0
 15 16  1  0  0  0
 15 36  1  0  0  0
 15 37  1  0  0  0
 16 17  1  0  0  0
 16 38  1  0  0  0
 16 39  1  0  0  0
 17 18  1  0  0  0
 17 21  1  0  0  0
 17 40  1  0  0  0
 18 19  1  0  0  0
 18 20  2  0  0  0
 21 41  1  0  0  0
 21 42  1  0  0  0
 21 45  1  0  0  0
 23 24  1  0  0  0
 24 43  1  0  0  0
 24 44  1  0  0  0
 25 26  1  0  0  0
 25 27  2  0  0  0
M  CHG  3  19  -1  21   1  26  -1
M  END
> <s_m_entry_id>
27394

> <s_m_entry_name>
data_maestro.25

> <s_m_Source_Path>
C:\Users\olshana1\Git\GramNeg-Accumulation\Gram Negative Permeation - OmpF

> <s_m_Source_File>
data_maestro.csv

> <i_m_Source_File_Index>
25

> <s_m_job_name>
glide-dock_Nicaido_neutral

> <s_i_glide_gridfile>
3POX-grid

> <i_i_glide_lignum>
32

> <i_i_glide_rotatable_bonds>
11

> <r_i_docking_score>
-5.13858102716863

> <r_i_glide_ligand_efficiency>
-0.190317815821061

> <r_i_glide_ligand_efficiency_sa>
-0.570953446835925

> <r_i_glide_ligand_efficiency_ln>
-1.1961769469957

> <r_i_glide_gscore>
-5.13858102716863

> <r_i_glide_lipo>
0

> <r_i_glide_hbond>
-0.829662028547403

> <r_i_glide_metal>
0

> <r_i_glide_rewards>
-0.677941204714555

> <r_i_glide_evdw>
-26.3960342407227

> <r_i_glide_ecoul>
-18.1558742523193

> <r_i_glide_erotb>
0.97830559423054

> <r_i_glide_esite>
-0.566100538253182

> <r_i_glide_emodel>
-74.2694319509378

> <r_i_glide_energy>
-44.551908493042

> <r_i_glide_einternal>
7.67267751693726

> <i_i_glide_confnum>
246

> <i_i_glide_posenum>
199

> <r_i_glide_eff_state_penalty>
0

> <r_glide_res:A132_vdw>
-1.75541154296052

> <r_glide_res:A132_coul>
-47.7294768149932

> <r_glide_res:A132_hbond>
-0.0857372728773603

> <r_glide_res:A132_dist>
2.21781137287416

> <r_glide_res:A132_Eint>
-49.570625630831

> <r_glide_res:A117_vdw>
-1.87444830383414

> <r_glide_res:A117_coul>
-14.4887674026096

> <r_glide_res:A117_hbond>
-0.123366629551614

> <r_glide_res:A117_dist>
2.14170892194643

> <r_glide_res:A117_Eint>
-16.4865823359954

> <r_glide_res:A113_vdw>
-2.13795439654284

> <r_glide_res:A113_coul>
19.0833129496525

> <r_glide_res:A113_hbond>
0

> <r_glide_res:A113_dist>
2.24679760839691

> <r_glide_res:A113_Eint>
16.9453585531096

> <r_glide_res:A82_vdw>
-0.795576759238997

> <r_glide_res:A82_coul>
-35.6847634497271

> <r_glide_res:A82_hbond>
0

> <r_glide_res:A82_dist>
3.53070512318702

> <r_glide_res:A82_Eint>
-36.4803402089661

> <r_glide_res:A42_vdw>
0.169483913616199

> <r_glide_res:A42_coul>
-39.5523365650177

> <r_glide_res:A42_hbond>
-0.2

> <r_glide_res:A42_dist>
1.85116261519645

> <r_glide_res:A42_Eint>
-39.5828526514015

> <r_glide_res:A16_vdw>
-0.661829582246191

> <r_glide_res:A16_coul>
-27.8180457300502

> <r_glide_res:A16_hbond>
0

> <r_glide_res:A16_dist>
2.52022562246345

> <r_glide_res:A16_Eint>
-28.4798753122964

> <s_m_source_file>
ligprep_Nicaido_neutral.maegz

> <i_m_source_file_index>
25

> <i_lp_mmshare_version>
58128

> <i_f3d_flags>
0

> <s_lp_Force_Field>
S-OPLS

> <r_lp_Energy>
27.061927

> <b_lp_Chiralities_Consistent>
1

> <s_lp_Variant>
Cephalosporin C-1

> <s_epik_input>
Tz1bQ0hdT1tDSDJdQyg9QzFDKD1PKVtPSF0pW0NIMl1TW0NASF0oTjEyKVtDQEhdKEMyPU8pW05IXUMoPU8pW0NIMl1bQ0gyXVtDSDJdW0NAQEhdKFtOSDJdKUMoPU8pW09IXQ==

> <s_epik_cmdline>
J2VwaWtfcHl0aG9uJywgJy1waHQnLCAnMC4wJywgJy1waCcsICc3LjQnLCAnLW50JywgJy1tYScsICc1MDAnLCAnLWltYWUnLCAnPGluZmlsZS5tYWU+JywgJy1vbWFlJywgJzxvdXRmaWxlLm1hZT4n

> <r_lp_tautomer_probability>
1

> <r_epik_Ionization_Penalty>
  0.0034

> <r_epik_Ionization_Penalty_Charging>
  0.0034

> <r_epik_Ionization_Penalty_Neutral>
  0.0000

> <r_epik_State_Penalty>
  0.0000

> <r_epik_Charging_Adjusted_Penalty>
0.00339038450865705

> <i_epik_Tot_Q>
-1

> <i_epik_Tot_abs_Q>
3

> <s_epik_Chemistry_Notes>
This compound has an ester and may undergo hydrolysis at high or low pH. This compound contains an acetal/aminal-like group ( X-CH(R)-Y where X, Y are N, S, or O) that may be acid/base labile, releasing an aldehyde.

> <s_m_subgroup_title>
glide-dock_Nicaido_neutral_pv1

> <s_m_subgroupid>
glide-dock_Nicaido_neutral_pv1

> <b_m_subgroup_collapsed>
0

$$$$
Cefacetrile
                    3D
 Schrodinger Suite 2022-2.
 35 36  0  0  1  0            999 V2000
  -31.9692  -16.8233  -27.0782 C   0  0  0  0  0  0
  -31.5332  -18.2327  -26.7100 C   0  0  0  0  0  0
  -32.3815  -18.8241  -25.8521 O   0  0  0  0  0  0
  -32.2610  -20.2119  -25.5752 C   0  0  0  0  0  0
  -31.4247  -20.5101  -24.3299 C   0  0  0  0  0  0
  -30.2581  -21.2221  -24.3033 C   0  0  0  0  0  0
  -29.5391  -21.4504  -23.1094 N   0  0  0  0  0  0
  -29.8395  -20.7756  -21.8619 C   0  0  2  0  0  0
  -28.7333  -21.6412  -21.2125 C   0  0  2  0  0  0
  -28.7724  -22.4543  -22.5314 C   0  0  0  0  0  0
  -28.4173  -23.5495  -22.9228 O   0  0  0  0  0  0
  -29.1689  -22.3593  -20.0134 N   0  0  0  0  0  0
  -28.5433  -23.4122  -19.4653 C   0  0  0  0  0  0
  -29.1171  -23.9496  -18.1514 C   0  0  0  0  0  0
  -28.6955  -25.3282  -17.8465 C   0  0  0  0  0  0
  -28.3688  -26.4165  -17.6133 N   0  0  0  0  0  0
  -27.5604  -23.9496  -19.9807 O   0  0  0  0  0  0
  -31.6328  -20.9387  -21.6133 S   0  0  0  0  0  0
  -32.0908  -19.9761  -23.0677 C   0  0  0  0  0  0
  -29.6101  -21.8686  -25.5687 C   0  0  0  0  0  0
  -28.3631  -21.9495  -25.6133 O   0  5  0  0  0  0
  -30.3828  -22.3495  -26.4196 O   0  0  0  0  0  0
  -30.5352  -18.7494  -27.2133 O   0  0  0  0  0  0
  -32.8239  -16.8537  -27.7531 H   0  0  0  0  0  0
  -32.2522  -16.2708  -26.1822 H   0  0  0  0  0  0
  -31.1551  -16.2903  -27.5702 H   0  0  0  0  0  0
  -31.9236  -20.7195  -26.4716 H   0  0  0  0  0  0
  -33.2639  -20.6000  -25.3966 H   0  0  0  0  0  0
  -29.5589  -19.7214  -21.9069 H   0  0  0  0  0  0
  -27.8135  -21.0744  -21.0603 H   0  0  0  0  0  0
  -29.9750  -21.9779  -19.5104 H   0  0  0  0  0  0
  -30.2048  -23.9521  -18.1968 H   0  0  0  0  0  0
  -28.8197  -23.3015  -17.3270 H   0  0  0  0  0  0
  -31.8174  -18.9297  -22.9265 H   0  0  0  0  0  0
  -33.1761  -20.0185  -23.1624 H   0  0  0  0  0  0
  1  2  1  0  0  0
  1 24  1  0  0  0
  1 25  1  0  0  0
  1 26  1  0  0  0
  2  3  1  0  0  0
  2 23  2  0  0  0
  3  4  1  0  0  0
  4  5  1  0  0  0
  4 27  1  0  0  0
  4 28  1  0  0  0
  5 19  1  0  0  0
  5  6  2  0  0  0
  6  7  1  0  0  0
  6 20  1  0  0  0
  7 10  1  0  0  0
  7  8  1  0  0  0
  8  9  1  0  0  0
  8 18  1  0  0  0
  8 29  1  0  0  0
  9 10  1  0  0  0
  9 12  1  0  0  0
  9 30  1  0  0  0
 10 11  2  0  0  0
 12 13  1  0  0  0
 12 31  1  0  0  0
 13 14  1  0  0  0
 13 17  2  0  0  0
 14 15  1  0  0  0
 14 32  1  0  0  0
 14 33  1  0  0  0
 15 16  3  0  0  0
 18 19  1  0  0  0
 19 34  1  0  0  0
 19 35  1  0  0  0
 20 21  1  0  0  0
 20 22  2  0  0  0
M  CHG  1  21  -1
M  END
> <s_m_entry_id>
27395

> <s_m_entry_name>
data_maestro.1

> <s_m_Source_Path>
C:\Users\olshana1\Git\GramNeg-Accumulation\Gram Negative Permeation - OmpF

> <s_m_Source_File>
data_maestro.csv

> <i_m_Source_File_Index>
1

> <s_m_job_name>
glide-dock_Nicaido_neutral

> <s_i_glide_gridfile>
3POX-grid

> <i_i_glide_lignum>
1

> <i_i_glide_rotatable_bonds>
7

> <r_i_docking_score>
-5.13814139564107

> <r_i_glide_ligand_efficiency>
-0.223397451984394

> <r_i_glide_ligand_efficiency_sa>
-0.635312636417388

> <r_i_glide_ligand_efficiency_ln>
-1.24244917955632

> <r_i_glide_gscore>
-5.13814139564107

> <r_i_glide_lipo>
0

> <r_i_glide_hbond>
-1.07079852729165

> <r_i_glide_metal>
0

> <r_i_glide_rewards>
-1.10064274212517

> <r_i_glide_evdw>
-21.3598690032959

> <r_i_glide_ecoul>
-13.1969413757324

> <r_i_glide_erotb>
0.660867222788296

> <r_i_glide_esite>
-0.580032692487886

> <r_i_glide_emodel>
-59.3561505914786

> <r_i_glide_energy>
-34.5568103790283

> <r_i_glide_einternal>
2.45867657661438

> <i_i_glide_confnum>
4

> <i_i_glide_posenum>
336

> <r_i_glide_eff_state_penalty>
0

> <r_glide_res:A132_vdw>
-1.77726568145173

> <r_glide_res:A132_coul>
-33.1541067089744

> <r_glide_res:A132_hbond>
-0.16

> <r_glide_res:A132_dist>
1.94285594483115

> <r_glide_res:A132_Eint>
-35.0913723904261

> <r_glide_res:A117_vdw>
-1.50597656879471

> <r_glide_res:A117_coul>
25.0915328778693

> <r_glide_res:A117_hbond>
0

> <r_glide_res:A117_dist>
3.81064674090529

> <r_glide_res:A117_Eint>
23.5855563090746

> <r_glide_res:A113_vdw>
-1.82992591375357

> <r_glide_res:A113_coul>
4.94584649260886

> <r_glide_res:A113_hbond>
-0.179113151561802

> <r_glide_res:A113_dist>
1.86472939866377

> <r_glide_res:A113_Eint>
2.93680742729349

> <r_glide_res:A82_vdw>
-1.69966526174922

> <r_glide_res:A82_coul>
-39.8513585577761

> <r_glide_res:A82_hbond>
-0.116407503113679

> <r_glide_res:A82_dist>
2.22680514495496

> <r_glide_res:A82_Eint>
-41.667431322639

> <r_glide_res:A42_vdw>
2.16547800587375

> <r_glide_res:A42_coul>
-55.0895672253069

> <r_glide_res:A42_hbond>
-0.456743992323443

> <r_glide_res:A42_dist>
1.92638820120236

> <r_glide_res:A42_Eint>
-53.3808332117566

> <r_glide_res:A16_vdw>
-0.865344338265471

> <r_glide_res:A16_coul>
-48.3734523937821

> <r_glide_res:A16_hbond>
-0.158533880292731

> <r_glide_res:A16_dist>
2.07626630241137

> <r_glide_res:A16_Eint>
-49.3973306123403

> <s_m_source_file>
ligprep_Nicaido_neutral.maegz

> <i_m_source_file_index>
1

> <i_lp_mmshare_version>
58128

> <i_f3d_flags>
0

> <s_lp_Force_Field>
S-OPLS

> <r_lp_Energy>
24.277434

> <b_lp_Chiralities_Consistent>
1

> <s_lp_Variant>
Cefacetrile-1

> <s_epik_input>
W0NIM11DKD1PKU9bQ0gyXUMoPUMxQyg9TylbT0hdKVtDSDJdU1tDQEhdKE4xMilbQ0BIXShDMj1PKVtOSF1DKD1PKVtDSDJdQyNO

> <s_epik_cmdline>
J2VwaWtfcHl0aG9uJywgJy1waHQnLCAnMC4wJywgJy1waCcsICc3LjQnLCAnLW50JywgJy1tYScsICc1MDAnLCAnLWltYWUnLCAnPGluZmlsZS5tYWU+JywgJy1vbWFlJywgJzxvdXRmaWxlLm1hZT4n

> <r_lp_tautomer_probability>
1

> <r_epik_Ionization_Penalty>
  0.0000

> <r_epik_Ionization_Penalty_Charging>
  0.0000

> <r_epik_Ionization_Penalty_Neutral>
  0.0000

> <r_epik_State_Penalty>
  0.0000

> <r_epik_Charging_Adjusted_Penalty>
5.96156609429709e-06

> <i_epik_Tot_Q>
-1

> <i_epik_Tot_abs_Q>
1

> <s_epik_Chemistry_Notes>
This compound has an ester and may undergo hydrolysis at high or low pH. This compound contains an acetal/aminal-like group ( X-CH(R)-Y where X, Y are N, S, or O) that may be acid/base labile, releasing an aldehyde.

> <s_m_subgroup_title>
glide-dock_Nicaido_neutral_pv1

> <s_m_subgroupid>
glide-dock_Nicaido_neutral_pv1

> <b_m_subgroup_collapsed>
0

$$$$
Cefuroxime
                    3D
 Schrodinger Suite 2022-2.
 44 46  0  0  1  0            999 V2000
  -35.2678  -19.0624  -29.1731 C   0  0  0  0  0  0
  -34.7238  -18.1799  -28.2100 O   0  0  0  0  0  0
  -33.5014  -18.7187  -27.7853 N   0  0  0  0  0  0
  -33.0437  -18.1745  -26.7260 C   0  0  0  0  0  0
  -33.6724  -17.0537  -26.0128 C   0  0  0  0  0  0
  -34.0417  -16.8250  -24.7128 C   0  0  0  0  0  0
  -34.6687  -15.5499  -24.6812 C   0  0  0  0  0  0
  -34.6183  -15.0770  -25.9611 C   0  0  0  0  0  0
  -34.0138  -15.9765  -26.7828 O   0  0  0  0  0  0
  -31.7748  -18.7382  -26.1134 C   0  0  0  0  0  0
  -31.1369  -17.9222  -25.2482 N   0  0  0  0  0  0
  -29.9601  -18.2051  -24.4093 C   0  0  1  0  0  0
  -30.2001  -19.3371  -23.3994 C   0  0  1  0  0  0
  -28.9062  -19.8618  -23.8042 N   0  0  0  0  0  0
  -28.8686  -19.1434  -24.9847 C   0  0  0  0  0  0
  -28.2485  -19.2758  -26.0132 O   0  0  0  0  0  0
  -28.4267  -21.0408  -23.2116 C   0  0  0  0  0  0
  -28.0771  -22.2443  -24.1718 C   0  0  0  0  0  0
  -28.7631  -22.3512  -25.2144 O   0  5  0  0  0  0
  -27.1714  -23.0405  -23.8302 O   0  0  0  0  0  0
  -28.3599  -21.0684  -21.8568 C   0  0  0  0  0  0
  -28.6858  -19.8059  -21.0570 C   0  0  0  0  0  0
  -30.2230  -18.9970  -21.6133 S   0  0  0  0  0  0
  -27.8358  -22.2438  -21.0386 C   0  0  0  0  0  0
  -28.6455  -22.5287  -19.9132 O   0  0  0  0  0  0
  -28.3159  -23.5441  -19.1104 C   0  0  0  0  0  0
  -29.1688  -23.5499  -18.0370 N   0  0  0  0  0  0
  -27.4051  -24.3494  -19.3149 O   0  0  0  0  0  0
  -31.3918  -19.8724  -26.4101 O   0  0  0  0  0  0
  -36.2170  -18.6667  -29.5343 H   0  0  0  0  0  0
  -34.5967  -19.1774  -30.0245 H   0  0  0  0  0  0
  -35.4605  -20.0483  -28.7467 H   0  0  0  0  0  0
  -33.8937  -17.5014  -23.8833 H   0  0  0  0  0  0
  -35.0901  -15.0412  -23.8260 H   0  0  0  0  0  0
  -34.9483  -14.1624  -26.4329 H   0  0  0  0  0  0
  -31.5202  -16.9941  -25.1280 H   0  0  0  0  0  0
  -29.5730  -17.3161  -23.9112 H   0  0  0  0  0  0
  -31.0005  -20.0285  -23.6721 H   0  0  0  0  0  0
  -28.7697  -20.0093  -19.9898 H   0  0  0  0  0  0
  -27.8608  -19.1025  -21.1720 H   0  0  0  0  0  0
  -27.7800  -23.1538  -21.6285 H   0  0  0  0  0  0
  -26.8251  -22.0061  -20.7040 H   0  0  0  0  0  0
  -29.9172  -22.8365  -18.0138 H   0  0  0  0  0  0
  -29.0183  -24.2192  -17.2993 H   0  0  0  0  0  0
  1  2  1  0  0  0
  1 30  1  0  0  0
  1 31  1  0  0  0
  1 32  1  0  0  0
  2  3  1  0  0  0
  3  4  2  3  0  0
  4  5  1  0  0  0
  4 10  1  0  0  0
  5  9  1  0  0  0
  5  6  2  0  0  0
  6  7  1  0  0  0
  6 33  1  0  0  0
  7  8  2  0  0  0
  7 34  1  0  0  0
  8  9  1  0  0  0
  8 35  1  0  0  0
 10 11  1  0  0  0
 10 29  2  0  0  0
 11 12  1  0  0  0
 11 36  1  0  0  0
 12 15  1  0  0  0
 12 13  1  0  0  0
 12 37  1  0  0  0
 13 23  1  0  0  0
 13 14  1  0  0  0
 13 38  1  0  0  0
 14 15  1  0  0  0
 14 17  1  0  0  0
 15 16  2  0  0  0
 17 18  1  0  0  0
 17 21  2  0  0  0
 18 19  1  0  0  0
 18 20  2  0  0  0
 21 22  1  0  0  0
 21 24  1  0  0  0
 22 23  1  0  0  0
 22 39  1  0  0  0
 22 40  1  0  0  0
 24 25  1  0  0  0
 24 41  1  0  0  0
 24 42  1  0  0  0
 25 26  1  0  0  0
 26 27  1  0  0  0
 26 28  2  0  0  0
 27 43  1  0  0  0
 27 44  1  0  0  0
M  CHG  1  19  -1
M  END
> <s_m_entry_id>
27396

> <s_m_entry_name>
data_maestro.10

> <s_m_Source_Path>
C:\Users\olshana1\Git\GramNeg-Accumulation\Gram Negative Permeation - OmpF

> <s_m_Source_File>
data_maestro.csv

> <i_m_Source_File_Index>
10

> <s_m_job_name>
glide-dock_Nicaido_neutral

> <s_i_glide_gridfile>
3POX-grid

> <i_i_glide_lignum>
13

> <i_i_glide_rotatable_bonds>
9

> <r_i_docking_score>
-5.13781054692442

> <r_i_glide_ligand_efficiency>
-0.177165880928428

> <r_i_glide_ligand_efficiency_sa>
-0.544309716302915

> <r_i_glide_ligand_efficiency_ln>
-1.1764283316114

> <r_i_glide_gscore>
-5.13781054692442

> <r_i_glide_lipo>
-0.33807261504232

> <r_i_glide_hbond>
-0.780153053223027

> <r_i_glide_metal>
0

> <r_i_glide_rewards>
-0.51221806904229

> <r_i_glide_evdw>
-29.13303565979

> <r_i_glide_ecoul>
-14.1990795135498

> <r_i_glide_erotb>
0.663396273735242

> <r_i_glide_esite>
-0.584249373330052

> <r_i_glide_emodel>
-66.9581284574196

> <r_i_glide_energy>
-43.3321151733398

> <r_i_glide_einternal>
9.03674411773682

> <i_i_glide_confnum>
117

> <i_i_glide_posenum>
92

> <r_i_glide_eff_state_penalty>
0

> <r_glide_res:A132_vdw>
-0.734334799307855

> <r_glide_res:A132_coul>
-33.1744593450359

> <r_glide_res:A132_hbond>
-0.14249444143334

> <r_glide_res:A132_dist>
1.97508606400679

> <r_glide_res:A132_Eint>
-34.0512885857771

> <r_glide_res:A117_vdw>
-5.30061266651941

> <r_glide_res:A117_coul>
27.116368739833

> <r_glide_res:A117_hbond>
0

> <r_glide_res:A117_dist>
1.99998743885543

> <r_glide_res:A117_Eint>
21.8157560733136

> <r_glide_res:A113_vdw>
1.28497546847541

> <r_glide_res:A113_coul>
13.8957789016984

> <r_glide_res:A113_hbond>
-0.150674830548062

> <r_glide_res:A113_dist>
1.57668707637016

> <r_glide_res:A113_Eint>
15.0300795396258

> <r_glide_res:A82_vdw>
-1.20569751739401

> <r_glide_res:A82_coul>
-40.6344596324711

> <r_glide_res:A82_hbond>
-0.088477090389753

> <r_glide_res:A82_dist>
2.22871933987669

> <r_glide_res:A82_Eint>
-41.9286342402549

> <r_glide_res:A42_vdw>
-0.543449482028465

> <r_glide_res:A42_coul>
-52.5118770304378

> <r_glide_res:A42_hbond>
-0.363454398255497

> <r_glide_res:A42_dist>
1.94060932706853

> <r_glide_res:A42_Eint>
-53.4187809107218

> <r_glide_res:A16_vdw>
-1.18330492635747

> <r_glide_res:A16_coul>
-42.7079072831076

> <r_glide_res:A16_hbond>
-0.00669708622535017

> <r_glide_res:A16_dist>
2.40627112642969

> <r_glide_res:A16_Eint>
-43.8979092956904

> <s_m_source_file>
ligprep_Nicaido_neutral.maegz

> <i_m_source_file_index>
10

> <i_lp_mmshare_version>
58128

> <i_f3d_flags>
0

> <s_lp_Force_Field>
S-OPLS

> <r_lp_Energy>
41.721283

> <b_lp_Chiralities_Consistent>
1

> <s_lp_Variant>
Cefuroxime-1

> <s_epik_input>
bzFbY0hdW2NIXVtjSF1jMS9DKD1OXE9bQ0gzXSlDKD1PKVtOSF1bQ0BASF0yQyg9TylOKFtDQEhdMjMpQyhDKD1PKVtPSF0pPUMoW0NIMl1TMylbQ0gyXU9DKD1PKVtOSDJd

> <s_epik_cmdline>
J2VwaWtfcHl0aG9uJywgJy1waHQnLCAnMC4wJywgJy1waCcsICc3LjQnLCAnLW50JywgJy1tYScsICc1MDAnLCAnLWltYWUnLCAnPGluZmlsZS5tYWU+JywgJy1vbWFlJywgJzxvdXRmaWxlLm1hZT4n

> <r_lp_tautomer_probability>
1

> <r_epik_Ionization_Penalty>
  0.0000

> <r_epik_Ionization_Penalty_Charging>
  0.0000

> <r_epik_Ionization_Penalty_Neutral>
  0.0000

> <r_epik_State_Penalty>
  0.0000

> <r_epik_Charging_Adjusted_Penalty>
8.57368987839538e-06

> <i_epik_Tot_Q>
-1

> <i_epik_Tot_abs_Q>
1

> <s_epik_Chemistry_Notes>
This compound has an ester and may undergo hydrolysis at high or low pH. This compound has an imine and may undergo hydrolysis. This compound contains an acetal/aminal-like group ( X-CH(R)-Y where X, Y are N, S, or O) that may be acid/base labile, releasing an aldehyde.

> <s_m_subgroup_title>
glide-dock_Nicaido_neutral_pv1

> <s_m_subgroupid>
glide-dock_Nicaido_neutral_pv1

> <b_m_subgroup_collapsed>
0

$$$$
Cyclacillin
                    3D
 Schrodinger Suite 2022-2.
 46 48  0  0  1  0            999 V2000
  -28.9231  -19.0834  -25.2044 C   0  0  0  0  0  0
  -30.2643  -19.2917  -24.4673 C   0  0  0  0  0  0
  -30.7779  -20.7771  -24.4510 C   0  0  2  0  0  0
  -30.2357  -21.3274  -23.2260 N   0  0  0  0  0  0
  -30.0203  -20.5481  -22.0198 C   0  0  2  0  0  0
  -29.9692  -18.8642  -22.7070 S   0  0  0  0  0  0
  -28.7929  -21.4278  -21.7624 C   0  0  2  0  0  0
  -29.3919  -22.3421  -22.8536 C   0  0  0  0  0  0
  -29.1749  -23.4503  -23.3029 O   0  0  0  0  0  0
  -28.7543  -22.0106  -20.4218 N   0  0  0  0  0  0
  -27.9500  -23.0447  -20.1198 C   0  0  0  0  0  0
  -27.8182  -23.4783  -18.6460 C   0  0  0  0  0  0
  -26.8732  -24.7126  -18.5289 C   0  0  0  0  0  0
  -25.3687  -24.3976  -18.7147 C   0  0  0  0  0  0
  -24.9050  -23.2392  -17.8223 C   0  0  0  0  0  0
  -25.7896  -22.0026  -18.0245 C   0  0  0  0  0  0
  -27.2633  -22.3489  -17.7567 C   0  0  0  0  0  0
  -29.1689  -23.8337  -18.1624 N   0  3  0  0  0  0
  -27.3399  -23.6769  -20.9876 O   0  0  0  0  0  0
  -30.4983  -21.6265  -25.7103 C   0  0  0  0  0  0
  -31.4794  -21.9484  -26.4132 O   0  5  0  0  0  0
  -29.3214  -21.9495  -25.9948 O   0  0  0  0  0  0
  -31.3215  -18.3449  -25.0585 C   0  0  0  0  0  0
  -29.0148  -19.2565  -26.2763 H   0  0  0  0  0  0
  -28.1514  -19.7511  -24.8218 H   0  0  0  0  0  0
  -28.5574  -18.0634  -25.0788 H   0  0  0  0  0  0
  -31.8587  -20.7721  -24.3002 H   0  0  0  0  0  0
  -30.8255  -20.6594  -21.2893 H   0  0  0  0  0  0
  -27.8665  -20.9294  -22.0517 H   0  0  0  0  0  0
  -29.2748  -21.5216  -19.6999 H   0  0  0  0  0  0
  -27.0251  -25.2183  -17.5959 H   0  0  0  0  0  0
  -27.1619  -25.4961  -19.2133 H   0  0  0  0  0  0
  -24.7760  -25.2854  -18.4944 H   0  0  0  0  0  0
  -25.1538  -24.1455  -19.7527 H   0  0  0  0  0  0
  -24.9397  -23.5482  -16.7768 H   0  0  0  0  0  0
  -23.8646  -22.9917  -18.0375 H   0  0  0  0  0  0
  -25.4720  -21.2102  -17.3446 H   0  0  0  0  0  0
  -25.6657  -21.6087  -19.0338 H   0  0  0  0  0  0
  -27.8735  -21.4462  -17.8314 H   0  0  0  0  0  0
  -27.3367  -22.6821  -16.7236 H   0  0  0  0  0  0
  -29.1101  -24.1443  -17.2045 H   0  0  0  0  0  0
  -29.7916  -23.0199  -18.1933 H   0  0  0  0  0  0
  -31.5286  -18.5838  -26.1016 H   0  0  0  0  0  0
  -32.2617  -18.4040  -24.5082 H   0  0  0  0  0  0
  -30.9867  -17.3073  -25.0174 H   0  0  0  0  0  0
  -29.5786  -24.5570  -18.7317 H   0  0  0  0  0  0
  1  2  1  0  0  0
  1 24  1  0  0  0
  1 25  1  0  0  0
  1 26  1  0  0  0
  2  6  1  0  0  0
  2  3  1  0  0  0
  2 23  1  0  0  0
  3  4  1  0  0  0
  3 20  1  0  0  0
  3 27  1  0  0  0
  4  8  1  0  0  0
  4  5  1  0  0  0
  5  6  1  0  0  0
  5  7  1  0  0  0
  5 28  1  0  0  0
  7  8  1  0  0  0
  7 10  1  0  0  0
  7 29  1  0  0  0
  8  9  2  0  0  0
 10 11  1  0  0  0
 10 30  1  0  0  0
 11 12  1  0  0  0
 11 19  2  0  0  0
 12 17  1  0  0  0
 12 13  1  0  0  0
 12 18  1  0  0  0
 13 14  1  0  0  0
 13 31  1  0  0  0
 13 32  1  0  0  0
 14 15  1  0  0  0
 14 33  1  0  0  0
 14 34  1  0  0  0
 15 16  1  0  0  0
 15 35  1  0  0  0
 15 36  1  0  0  0
 16 17  1  0  0  0
 16 37  1  0  0  0
 16 38  1  0  0  0
 17 39  1  0  0  0
 17 40  1  0  0  0
 18 41  1  0  0  0
 18 42  1  0  0  0
 18 46  1  0  0  0
 20 21  1  0  0  0
 20 22  2  0  0  0
 23 43  1  0  0  0
 23 44  1  0  0  0
 23 45  1  0  0  0
M  CHG  2  18   1  21  -1
M  END
> <s_m_entry_id>
27397

> <s_m_entry_name>
data_maestro.19

> <s_m_Source_Path>
C:\Users\olshana1\Git\GramNeg-Accumulation\Gram Negative Permeation - OmpF

> <s_m_Source_File>
data_maestro.csv

> <i_m_Source_File_Index>
19

> <s_m_job_name>
glide-dock_Nicaido_neutral

> <s_i_glide_gridfile>
3POX-grid

> <i_i_glide_lignum>
24

> <i_i_glide_rotatable_bonds>
4

> <r_i_docking_score>
-5.12528686041726

> <r_i_glide_ligand_efficiency>
-0.222838559148577

> <r_i_glide_ligand_efficiency_sa>
-0.633723219537992

> <r_i_glide_ligand_efficiency_ln>
-1.23934083638072

> <r_i_glide_gscore>
-5.32858686041726

> <r_i_glide_lipo>
0

> <r_i_glide_hbond>
-0.627956540341503

> <r_i_glide_metal>
0

> <r_i_glide_rewards>
-1.0764319548691

> <r_i_glide_evdw>
-24.0886249542236

> <r_i_glide_ecoul>
-15.8821487426758

> <r_i_glide_erotb>
0.487675558125352

> <r_i_glide_esite>
-0.52512036421946

> <r_i_glide_emodel>
-68.2123766768184

> <r_i_glide_energy>
-39.9707736968994

> <r_i_glide_einternal>
4.31384754180908

> <i_i_glide_confnum>
8

> <i_i_glide_posenum>
127

> <r_i_glide_eff_state_penalty>
0.2033

> <r_glide_res:A132_vdw>
-1.66947313736235

> <r_glide_res:A132_coul>
7.45599668789776

> <r_glide_res:A132_hbond>
-0.0980468895375711

> <r_glide_res:A132_dist>
1.68349223492139

> <r_glide_res:A132_Eint>
5.68847666099784

> <r_glide_res:A117_vdw>
-3.12609432359834

> <r_glide_res:A117_coul>
7.85563901603144

> <r_glide_res:A117_hbond>
0

> <r_glide_res:A117_dist>
2.26773115720413

> <r_glide_res:A117_Eint>
4.7295446924331

> <r_glide_res:A113_vdw>
-2.46473178914359

> <r_glide_res:A113_coul>
-41.2875047687804

> <r_glide_res:A113_hbond>
-0.2

> <r_glide_res:A113_dist>
1.77789885035984

> <r_glide_res:A113_Eint>
-43.952236557924

> <r_glide_res:A82_vdw>
-1.63357555651592

> <r_glide_res:A82_coul>
-15.6240360968462

> <r_glide_res:A82_hbond>
-0.079364346968538

> <r_glide_res:A82_dist>
2.25487341052984

> <r_glide_res:A82_Eint>
-17.3369760003307

> <r_glide_res:A42_vdw>
-0.514547905878194

> <r_glide_res:A42_coul>
-32.3897241940498

> <r_glide_res:A42_hbond>
-0.186587384086961

> <r_glide_res:A42_dist>
1.89973069238107

> <r_glide_res:A42_Eint>
-33.090859484015

> <r_glide_res:A16_vdw>
-0.210121318257253

> <r_glide_res:A16_coul>
-37.1612667380481

> <r_glide_res:A16_hbond>
-0.0639579197484334

> <r_glide_res:A16_dist>
2.22267540422825

> <r_glide_res:A16_Eint>
-37.4353459760538

> <s_m_source_file>
ligprep_Nicaido_neutral.maegz

> <i_m_source_file_index>
19

> <i_lp_mmshare_version>
58128

> <i_f3d_flags>
0

> <s_lp_Force_Field>
S-OPLS

> <r_lp_Energy>
30.580191

> <b_lp_Chiralities_Consistent>
1

> <s_lp_Variant>
Cyclacillin-1

> <s_epik_input>
W09IXUMoPU8pW0NAQEhdMUMoW0NIM10pKFtDSDNdKVNbQ0BASF0oTjEyKVtDQEhdKEMyPU8pW05IXUMoPU8pQzMoW05IMl0pW0NIMl1bQ0gyXVtDSDJdW0NIMl1bQ0gyXTM=

> <s_epik_cmdline>
J2VwaWtfcHl0aG9uJywgJy1waHQnLCAnMC4wJywgJy1waCcsICc3LjQnLCAnLW50JywgJy1tYScsICc1MDAnLCAnLWltYWUnLCAnPGluZmlsZS5tYWU+JywgJy1vbWFlJywgJzxvdXRmaWxlLm1hZT4n

> <r_epik_Ionization_Penalty>
  0.2033

> <r_epik_Ionization_Penalty_Charging>
  0.2033

> <r_epik_Ionization_Penalty_Neutral>
  0.0000

> <r_epik_State_Penalty>
  0.2033

> <r_epik_Charging_Adjusted_Penalty>
0.406545099244061

> <i_epik_Tot_Q>
0

> <i_epik_Tot_abs_Q>
2

> <s_epik_Chemistry_Notes>
This compound contains an acetal/aminal-like group ( X-CH(R)-Y where X, Y are N, S, or O) that may be acid/base labile, releasing an aldehyde.

> <s_m_subgroup_title>
glide-dock_Nicaido_neutral_pv1

> <s_m_subgroupid>
glide-dock_Nicaido_neutral_pv1

> <b_m_subgroup_collapsed>
0

$$$$
Cephaloridine
                    3D
 Schrodinger Suite 2022-2.
 45 48  0  0  1  0            999 V2000
  -27.8813  -21.4553  -25.8692 O   0  0  0  0  0  0
  -28.0180  -20.7212  -24.9152 C   0  0  0  0  0  0
  -27.5557  -19.3164  -24.4600 C   0  0  2  0  0  0
  -26.0935  -19.1495  -24.4054 N   0  0  0  0  0  0
  -25.1655  -19.9512  -23.8534 C   0  0  0  0  0  0
  -23.7183  -19.4585  -23.9133 C   0  0  0  0  0  0
  -23.0393  -19.9606  -25.1473 C   0  0  0  0  0  0
  -22.8480  -21.2653  -25.5250 C   0  0  0  0  0  0
  -22.1733  -21.3915  -26.7715 C   0  0  0  0  0  0
  -21.8281  -20.1851  -27.3164 C   0  0  0  0  0  0
  -22.3683  -18.8628  -26.3278 S   0  0  0  0  0  0
  -25.4156  -21.0380  -23.3296 O   0  0  0  0  0  0
  -28.2194  -19.6625  -23.1061 C   0  0  2  0  0  0
  -28.6933  -20.8838  -23.7264 N   0  0  0  0  0  0
  -29.3762  -21.8697  -23.0022 C   0  0  0  0  0  0
  -29.2594  -23.3132  -23.5773 C   0  0  0  0  0  0
  -28.7662  -24.1716  -22.8093 O   0  5  0  0  0  0
  -29.6636  -23.5138  -24.7450 O   0  0  0  0  0  0
  -30.1073  -21.5692  -21.8973 C   0  0  0  0  0  0
  -30.8886  -22.6165  -21.1012 C   0  0  0  0  0  0
  -32.3150  -22.5857  -21.4863 N   0  3  0  0  0  0
  -32.7286  -23.3616  -22.5214 C   0  0  0  0  0  0
  -34.0745  -23.3492  -22.9396 C   0  0  0  0  0  0
  -34.9925  -22.5150  -22.2723 C   0  0  0  0  0  0
  -34.5400  -21.7209  -21.2013 C   0  0  0  0  0  0
  -33.1837  -21.7851  -20.8213 C   0  0  0  0  0  0
  -30.1937  -20.1528  -21.3128 C   0  0  0  0  0  0
  -29.7006  -18.8392  -22.4630 S   0  0  0  0  0  0
  -28.0566  -18.4893  -24.9631 H   0  0  0  0  0  0
  -25.7376  -18.2828  -24.8090 H   0  0  0  0  0  0
  -23.1868  -19.8109  -23.0298 H   0  0  0  0  0  0
  -23.6888  -18.3688  -23.8751 H   0  0  0  0  0  0
  -23.1807  -22.1228  -24.9573 H   0  0  0  0  0  0
  -21.9687  -22.3509  -27.2148 H   0  0  0  0  0  0
  -21.3215  -19.9876  -28.2507 H   0  0  0  0  0  0
  -27.5188  -19.8691  -22.2946 H   0  0  0  0  0  0
  -30.5458  -23.6379  -21.2418 H   0  0  0  0  0  0
  -30.7853  -22.4482  -20.0368 H   0  0  0  0  0  0
  -31.9766  -23.9714  -22.9995 H   0  0  0  0  0  0
  -34.3996  -23.9687  -23.7640 H   0  0  0  0  0  0
  -36.0292  -22.4824  -22.5762 H   0  0  0  0  0  0
  -35.2192  -21.0709  -20.6648 H   0  0  0  0  0  0
  -32.7727  -21.1992  -20.0149 H   0  0  0  0  0  0
  -31.2111  -19.9215  -21.0059 H   0  0  0  0  0  0
  -29.5664  -20.1052  -20.4175 H   0  0  0  0  0  0
  1  2  2  0  0  0
  2 14  1  0  0  0
  2  3  1  0  0  0
  3  4  1  0  0  0
  3 13  1  0  0  0
  3 29  1  0  0  0
  4  5  1  0  0  0
  4 30  1  0  0  0
  5  6  1  0  0  0
  5 12  2  0  0  0
  6  7  1  0  0  0
  6 31  1  0  0  0
  6 32  1  0  0  0
  7 11  1  0  0  0
  7  8  2  0  0  0
  8  9  1  0  0  0
  8 33  1  0  0  0
  9 10  2  0  0  0
  9 34  1  0  0  0
 10 11  1  0  0  0
 10 35  1  0  0  0
 13 28  1  0  0  0
 13 14  1  0  0  0
 13 36  1  0  0  0
 14 15  1  0  0  0
 15 16  1  0  0  0
 15 19  2  0  0  0
 16 17  1  0  0  0
 16 18  2  0  0  0
 19 20  1  0  0  0
 19 27  1  0  0  0
 20 21  1  0  0  0
 20 37  1  0  0  0
 20 38  1  0  0  0
 21 26  1  0  0  0
 21 22  2  0  0  0
 22 23  1  0  0  0
 22 39  1  0  0  0
 23 24  2  0  0  0
 23 40  1  0  0  0
 24 25  1  0  0  0
 24 41  1  0  0  0
 25 26  2  0  0  0
 25 42  1  0  0  0
 26 43  1  0  0  0
 27 28  1  0  0  0
 27 44  1  0  0  0
 27 45  1  0  0  0
M  CHG  2  17  -1  21   1
M  END
> <s_m_entry_id>
27398

> <s_m_entry_name>
data_maestro.13

> <s_m_Source_Path>
C:\Users\olshana1\Git\GramNeg-Accumulation\Gram Negative Permeation - OmpF

> <s_m_Source_File>
data_maestro.csv

> <i_m_Source_File_Index>
13

> <s_m_job_name>
glide-dock_Nicaido_neutral

> <s_i_glide_gridfile>
3POX-grid

> <i_i_glide_lignum>
18

> <i_i_glide_rotatable_bonds>
7

> <r_i_docking_score>
-5.12259466785797

> <r_i_glide_ligand_efficiency>
-0.182949809566356

> <r_i_glide_ligand_efficiency_sa>
-0.555543373518888

> <r_i_glide_ligand_efficiency_ln>
-1.18244525525661

> <r_i_glide_gscore>
-5.12259466785797

> <r_i_glide_lipo>
-0.366608915847654

> <r_i_glide_hbond>
-0.829386326213869

> <r_i_glide_metal>
0

> <r_i_glide_rewards>
-0.634490312168963

> <r_i_glide_evdw>
-22.6353092193604

> <r_i_glide_ecoul>
-15.0389461517334

> <r_i_glide_erotb>
0.571951339556603

> <r_i_glide_esite>
-0.476453069456064

> <r_i_glide_emodel>
-61.3397970975685

> <r_i_glide_energy>
-37.6742553710938

> <r_i_glide_einternal>
6.3681468963623

> <i_i_glide_confnum>
9

> <i_i_glide_posenum>
71

> <r_i_glide_eff_state_penalty>
0

> <r_glide_res:A132_vdw>
-1.0924408146917

> <r_glide_res:A132_coul>
-10.0350633011912

> <r_glide_res:A132_hbond>
0

> <r_glide_res:A132_dist>
2.82111897837044

> <r_glide_res:A132_Eint>
-11.1275041158829

> <r_glide_res:A117_vdw>
-4.34207641418179

> <r_glide_res:A117_coul>
-7.06994612791881

> <r_glide_res:A117_hbond>
-0.16

> <r_glide_res:A117_dist>
1.91201876811385

> <r_glide_res:A117_Eint>
-11.5720225421006

> <r_glide_res:A113_vdw>
0.954905162633788

> <r_glide_res:A113_coul>
-23.2873712103191

> <r_glide_res:A113_hbond>
0

> <r_glide_res:A113_dist>
1.99656383900609

> <r_glide_res:A113_Eint>
-22.3324660476853

> <r_glide_res:A82_vdw>
2.08098583166055

> <r_glide_res:A82_coul>
-26.6304537800955

> <r_glide_res:A82_hbond>
-0.33038642910727

> <r_glide_res:A82_dist>
1.81519141453385

> <r_glide_res:A82_Eint>
-24.8798543775422

> <r_glide_res:A42_vdw>
-0.199141796770748

> <r_glide_res:A42_coul>
-29.8342273957858

> <r_glide_res:A42_hbond>
-0.338999897106599

> <r_glide_res:A42_dist>
1.8873504361096

> <r_glide_res:A42_Eint>
-30.3723690896631

> <r_glide_res:A16_vdw>
-0.708862696432965

> <r_glide_res:A16_coul>
-10.6021932399832

> <r_glide_res:A16_hbond>
0

> <r_glide_res:A16_dist>
3.31141280741849

> <r_glide_res:A16_Eint>
-11.3110559364162

> <s_m_source_file>
ligprep_Nicaido_neutral.maegz

> <i_m_source_file_index>
13

> <i_lp_mmshare_version>
58128

> <i_f3d_flags>
0

> <s_lp_Force_Field>
S-OPLS

> <r_lp_Energy>
50.740529

> <b_lp_Chiralities_Consistent>
1

> <s_lp_Variant>
Cephaloridine-1

> <s_epik_input>
czFbY0hdW2NIXVtjSF1jMVtDSDJdQyg9TylbTkhdW0NASF0yQyg9TylOKFtDQEBIXTIzKUMoQyg9TylbT0hdKT1DKFtDSDJdUzMpW0NIMl1bbitdNFtjSF1bY0hdW2NIXVtjSF1bY0hdNA==

> <s_epik_cmdline>
J2VwaWtfcHl0aG9uJywgJy1waHQnLCAnMC4wJywgJy1waCcsICc3LjQnLCAnLW50JywgJy1tYScsICc1MDAnLCAnLWltYWUnLCAnPGluZmlsZS5tYWU+JywgJy1vbWFlJywgJzxvdXRmaWxlLm1hZT4n

> <r_lp_tautomer_probability>
1

> <r_epik_Ionization_Penalty>
  0.0000

> <r_epik_Ionization_Penalty_Charging>
  0.0000

> <r_epik_Ionization_Penalty_Neutral>
  0.0000

> <r_epik_State_Penalty>
  0.0000

> <r_epik_Charging_Adjusted_Penalty>
1.62498989321064e-05

> <i_epik_Tot_Q>
0

> <i_epik_Tot_abs_Q>
2

> <s_epik_Chemistry_Notes>
This compound contains an acetal/aminal-like group ( X-CH(R)-Y where X, Y are N, S, or O) that may be acid/base labile, releasing an aldehyde.

> <s_m_subgroup_title>
glide-dock_Nicaido_neutral_pv1

> <s_m_subgroupid>
glide-dock_Nicaido_neutral_pv1

> <b_m_subgroup_collapsed>
0

$$$$
Cefuroxime
                    3D
 Schrodinger Suite 2022-2.
 44 46  0  0  1  0            999 V2000
  -31.9058  -17.0524  -27.9431 C   0  0  0  0  0  0
  -31.2548  -18.0805  -27.2188 O   0  0  0  0  0  0
  -31.6288  -17.9515  -25.8703 N   0  0  0  0  0  0
  -30.8265  -18.5032  -25.0448 C   0  0  0  0  0  0
  -31.1135  -18.4648  -23.6115 C   0  0  0  0  0  0
  -30.4909  -17.9783  -22.4913 C   0  0  0  0  0  0
  -31.2966  -18.3494  -21.3817 C   0  0  0  0  0  0
  -32.3702  -19.0131  -21.8978 C   0  0  0  0  0  0
  -32.2762  -19.0880  -23.2538 O   0  0  0  0  0  0
  -29.5878  -19.3154  -25.4102 C   0  0  0  0  0  0
  -28.5635  -19.1492  -24.5519 N   0  0  0  0  0  0
  -27.2835  -19.8526  -24.5578 C   0  0  1  0  0  0
  -26.6260  -19.8229  -23.1603 C   0  0  1  0  0  0
  -26.4717  -21.2601  -23.2870 N   0  0  0  0  0  0
  -27.3860  -21.3823  -24.3230 C   0  0  0  0  0  0
  -27.9664  -22.3311  -24.8132 O   0  0  0  0  0  0
  -25.7296  -22.0392  -22.3722 C   0  0  0  0  0  0
  -25.9790  -23.5709  -22.4551 C   0  0  0  0  0  0
  -24.9808  -24.3089  -22.6140 O   0  5  0  0  0  0
  -27.1683  -23.9570  -22.4135 O   0  0  0  0  0  0
  -24.8955  -21.4978  -21.4424 C   0  0  0  0  0  0
  -24.6370  -20.0008  -21.3290 C   0  0  0  0  0  0
  -24.9803  -19.1177  -22.8657 S   0  0  0  0  0  0
  -24.1366  -22.3066  -20.3929 C   0  0  0  0  0  0
  -24.7514  -22.2098  -19.1137 O   0  0  0  0  0  0
  -25.1310  -23.3113  -18.4444 C   0  0  0  0  0  0
  -25.6106  -22.9305  -17.2138 N   0  0  0  0  0  0
  -25.0507  -24.4703  -18.8542 O   0  0  0  0  0  0
  -29.5667  -20.0808  -26.3808 O   0  0  0  0  0  0
  -31.6687  -17.1487  -29.0019 H   0  0  0  0  0  0
  -32.9902  -17.1079  -27.8346 H   0  0  0  0  0  0
  -31.5683  -16.0669  -27.6136 H   0  0  0  0  0  0
  -29.5687  -17.4219  -22.4594 H   0  0  0  0  0  0
  -31.1141  -18.1469  -20.3367 H   0  0  0  0  0  0
  -33.2429  -19.4757  -21.4590 H   0  0  0  0  0  0
  -28.6804  -18.4731  -23.8096 H   0  0  0  0  0  0
  -26.6046  -19.5402  -25.3538 H   0  0  0  0  0  0
  -27.3130  -19.5745  -22.3465 H   0  0  0  0  0  0
  -25.2526  -19.5924  -20.5270 H   0  0  0  0  0  0
  -23.5960  -19.8152  -21.0662 H   0  0  0  0  0  0
  -24.0020  -23.3413  -20.6972 H   0  0  0  0  0  0
  -23.1262  -21.9058  -20.3132 H   0  0  0  0  0  0
  -25.6805  -21.9445  -17.0040 H   0  0  0  0  0  0
  -25.9685  -23.6552  -16.5930 H   0  0  0  0  0  0
  1  2  1  0  0  0
  1 30  1  0  0  0
  1 31  1  0  0  0
  1 32  1  0  0  0
  2  3  1  0  0  0
  3  4  2  3  0  0
  4  5  1  0  0  0
  4 10  1  0  0  0
  5  9  1  0  0  0
  5  6  2  0  0  0
  6  7  1  0  0  0
  6 33  1  0  0  0
  7  8  2  0  0  0
  7 34  1  0  0  0
  8  9  1  0  0  0
  8 35  1  0  0  0
 10 11  1  0  0  0
 10 29  2  0  0  0
 11 12  1  0  0  0
 11 36  1  0  0  0
 12 15  1  0  0  0
 12 13  1  0  0  0
 12 37  1  0  0  0
 13 23  1  0  0  0
 13 14  1  0  0  0
 13 38  1  0  0  0
 14 15  1  0  0  0
 14 17  1  0  0  0
 15 16  2  0  0  0
 17 18  1  0  0  0
 17 21  2  0  0  0
 18 19  1  0  0  0
 18 20  2  0  0  0
 21 22  1  0  0  0
 21 24  1  0  0  0
 22 23  1  0  0  0
 22 39  1  0  0  0
 22 40  1  0  0  0
 24 25  1  0  0  0
 24 41  1  0  0  0
 24 42  1  0  0  0
 25 26  1  0  0  0
 26 27  1  0  0  0
 26 28  2  0  0  0
 27 43  1  0  0  0
 27 44  1  0  0  0
M  CHG  1  19  -1
M  END
> <s_m_entry_id>
27399

> <s_m_entry_name>
data_maestro.10

> <s_m_Source_Path>
C:\Users\olshana1\Git\GramNeg-Accumulation\Gram Negative Permeation - OmpF

> <s_m_Source_File>
data_maestro.csv

> <i_m_Source_File_Index>
10

> <s_m_job_name>
glide-dock_Nicaido_neutral

> <s_i_glide_gridfile>
3POX-grid

> <i_i_glide_lignum>
14

> <i_i_glide_rotatable_bonds>
9

> <r_i_docking_score>
-5.12147188033537

> <r_i_glide_ligand_efficiency>
-0.176602478632254

> <r_i_glide_ligand_efficiency_sa>
-0.542578765950692

> <r_i_glide_ligand_efficiency_ln>
-1.17268719127535

> <r_i_glide_gscore>
-5.12147188033537

> <r_i_glide_lipo>
0

> <r_i_glide_hbond>
-0.81387431271515

> <r_i_glide_metal>
0

> <r_i_glide_rewards>
-0.471905110590106

> <r_i_glide_evdw>
-29.3798942565918

> <r_i_glide_ecoul>
-15.6945552825928

> <r_i_glide_erotb>
0.663396273735242

> <r_i_glide_esite>
-0.675910725546855

> <r_i_glide_emodel>
-69.8330962887306

> <r_i_glide_energy>
-45.0744495391846

> <r_i_glide_einternal>
4.07669258117676

> <i_i_glide_confnum>
10

> <i_i_glide_posenum>
228

> <r_i_glide_eff_state_penalty>
0

> <r_glide_res:A132_vdw>
-1.71301298525296

> <r_glide_res:A132_coul>
-45.5733593122522

> <r_glide_res:A132_hbond>
-0.0136807534810827

> <r_glide_res:A132_dist>
2.41826096161576

> <r_glide_res:A132_Eint>
-47.3000530509863

> <r_glide_res:A117_vdw>
-6.61977681975365

> <r_glide_res:A117_coul>
18.1622062515983

> <r_glide_res:A117_hbond>
0

> <r_glide_res:A117_dist>
2.40215825752921

> <r_glide_res:A117_Eint>
11.5424294318447

> <r_glide_res:A113_vdw>
-2.11740075312883

> <r_glide_res:A113_coul>
18.0763354033989

> <r_glide_res:A113_hbond>
0

> <r_glide_res:A113_dist>
2.4231038665783

> <r_glide_res:A113_Eint>
15.9589346502701

> <r_glide_res:A82_vdw>
-0.132391397555309

> <r_glide_res:A82_coul>
-50.8163726778425

> <r_glide_res:A82_hbond>
-0.2

> <r_glide_res:A82_dist>
1.79458682916304

> <r_glide_res:A82_Eint>
-51.1487640753978

> <r_glide_res:A42_vdw>
-0.91086883156583

> <r_glide_res:A42_coul>
-40.5632820334425

> <r_glide_res:A42_hbond>
-0.169404941681331

> <r_glide_res:A42_dist>
1.87210636776089

> <r_glide_res:A42_Eint>
-41.6435558066896

> <r_glide_res:A16_vdw>
-1.14443389816788

> <r_glide_res:A16_coul>
-34.4144599877629

> <r_glide_res:A16_hbond>
-0.110788617552736

> <r_glide_res:A16_dist>
2.17181978618954

> <r_glide_res:A16_Eint>
-35.6696825034836

> <s_m_source_file>
ligprep_Nicaido_neutral.maegz

> <i_m_source_file_index>
10

> <i_lp_mmshare_version>
58128

> <i_f3d_flags>
0

> <s_lp_Force_Field>
S-OPLS

> <r_lp_Energy>
45.356438

> <b_lp_Chiralities_Consistent>
1

> <s_lp_Variant>
Cefuroxime-2

> <s_epik_input>
bzFbY0hdW2NIXVtjSF1jMS9DKD1OXE9bQ0gzXSlDKD1PKVtOSF1bQ0BASF0yQyg9TylOKFtDQEhdMjMpQyhDKD1PKVtPSF0pPUMoW0NIMl1TMylbQ0gyXU9DKD1PKVtOSDJd

> <s_epik_cmdline>
J2VwaWtfcHl0aG9uJywgJy1waHQnLCAnMC4wJywgJy1waCcsICc3LjQnLCAnLW50JywgJy1tYScsICc1MDAnLCAnLWltYWUnLCAnPGluZmlsZS5tYWU+JywgJy1vbWFlJywgJzxvdXRmaWxlLm1hZT4n

> <r_lp_tautomer_probability>
1

> <r_epik_Ionization_Penalty>
  0.0000

> <r_epik_Ionization_Penalty_Charging>
  0.0000

> <r_epik_Ionization_Penalty_Neutral>
  0.0000

> <r_epik_State_Penalty>
  0.0000

> <r_epik_Charging_Adjusted_Penalty>
8.57368987839538e-06

> <i_epik_Tot_Q>
-1

> <i_epik_Tot_abs_Q>
1

> <s_epik_Chemistry_Notes>
This compound has an ester and may undergo hydrolysis at high or low pH. This compound has an imine and may undergo hydrolysis. This compound contains an acetal/aminal-like group ( X-CH(R)-Y where X, Y are N, S, or O) that may be acid/base labile, releasing an aldehyde.

> <s_m_subgroup_title>
glide-dock_Nicaido_neutral_pv1

> <s_m_subgroupid>
glide-dock_Nicaido_neutral_pv1

> <b_m_subgroup_collapsed>
0

$$$$
Cefotaxime
                    3D
 Schrodinger Suite 2022-2.
 46 48  0  0  1  0            999 V2000
  -35.9453  -22.3031  -20.7050 C   0  0  0  0  0  0
  -34.6960  -23.0093  -21.2131 C   0  0  0  0  0  0
  -33.7643  -22.1483  -21.6402 O   0  0  0  0  0  0
  -32.4931  -22.6311  -22.0409 C   0  0  0  0  0  0
  -31.6127  -21.5012  -22.5646 C   0  0  0  0  0  0
  -30.9731  -21.5272  -23.7648 C   0  0  0  0  0  0
  -30.0784  -20.5102  -24.1285 N   0  0  0  0  0  0
  -29.4120  -19.6579  -23.1662 C   0  0  1  0  0  0
  -28.6875  -18.9893  -24.3478 C   0  0  2  0  0  0
  -29.4604  -19.9897  -25.2415 C   0  0  0  0  0  0
  -29.5688  -20.2587  -26.4159 O   0  0  0  0  0  0
  -27.2293  -19.1498  -24.2397 N   0  0  0  0  0  0
  -26.4110  -20.1541  -24.6167 C   0  0  0  0  0  0
  -24.9757  -19.9086  -24.2028 C   0  0  0  0  0  0
  -23.9687  -20.5767  -25.0748 C   0  0  0  0  0  0
  -23.0997  -19.8261  -25.8337 C   0  0  0  0  0  0
  -21.9881  -20.8084  -26.7419 S   0  0  0  0  0  0
  -22.7693  -22.2289  -26.0654 C   0  0  0  0  0  0
  -22.3693  -23.5044  -26.4132 N   0  0  0  0  0  0
  -23.7822  -21.9590  -25.2409 N   0  0  0  0  0  0
  -24.6927  -19.1516  -23.2136 N   0  0  0  0  0  0
  -23.3161  -19.0333  -22.9765 O   0  0  0  0  0  0
  -23.1370  -17.9832  -22.0419 C   0  0  0  0  0  0
  -26.7607  -21.1754  -25.2134 O   0  0  0  0  0  0
  -30.7151  -18.8413  -22.2173 S   0  0  0  0  0  0
  -31.4297  -20.3685  -21.5504 C   0  0  0  0  0  0
  -31.0653  -22.7080  -24.7926 C   0  0  0  0  0  0
  -32.2061  -23.0993  -25.1195 O   0  5  0  0  0  0
  -29.9686  -23.1501  -25.2134 O   0  0  0  0  0  0
  -34.6023  -24.2377  -21.2126 O   0  0  0  0  0  0
  -36.4057  -21.7238  -21.5040 H   0  0  0  0  0  0
  -36.6722  -23.0260  -20.3368 H   0  0  0  0  0  0
  -35.6881  -21.6265  -19.8887 H   0  0  0  0  0  0
  -32.6171  -23.4305  -22.7696 H   0  0  0  0  0  0
  -31.9983  -23.0713  -21.1727 H   0  0  0  0  0  0
  -28.7558  -20.2365  -22.5130 H   0  0  0  0  0  0
  -28.9919  -17.9496  -24.4726 H   0  0  0  0  0  0
  -26.7710  -18.3824  -23.7614 H   0  0  0  0  0  0
  -23.0466  -18.7494  -25.8970 H   0  0  0  0  0  0
  -23.1106  -24.1851  -26.4690 H   0  0  0  0  0  0
  -21.7493  -23.5473  -27.2219 H   0  0  0  0  0  0
  -22.0707  -17.8220  -21.8746 H   0  0  0  0  0  0
  -23.5634  -17.0484  -22.4117 H   0  0  0  0  0  0
  -23.6021  -18.2222  -21.0844 H   0  0  0  0  0  0
  -32.3596  -20.1207  -21.0373 H   0  0  0  0  0  0
  -30.7323  -20.7495  -20.8119 H   0  0  0  0  0  0
  1  2  1  0  0  0
  1 31  1  0  0  0
  1 32  1  0  0  0
  1 33  1  0  0  0
  2  3  1  0  0  0
  2 30  2  0  0  0
  3  4  1  0  0  0
  4  5  1  0  0  0
  4 34  1  0  0  0
  4 35  1  0  0  0
  5 26  1  0  0  0
  5  6  2  0  0  0
  6  7  1  0  0  0
  6 27  1  0  0  0
  7 10  1  0  0  0
  7  8  1  0  0  0
  8  9  1  0  0  0
  8 25  1  0  0  0
  8 36  1  0  0  0
  9 10  1  0  0  0
  9 12  1  0  0  0
  9 37  1  0  0  0
 10 11  2  0  0  0
 12 13  1  0  0  0
 12 38  1  0  0  0
 13 14  1  0  0  0
 13 24  2  0  0  0
 14 15  1  0  0  0
 14 21  2  3  0  0
 15 20  1  0  0  0
 15 16  2  0  0  0
 16 17  1  0  0  0
 16 39  1  0  0  0
 17 18  1  0  0  0
 18 19  1  0  0  0
 18 20  2  0  0  0
 19 40  1  0  0  0
 19 41  1  0  0  0
 21 22  1  0  0  0
 22 23  1  0  0  0
 23 42  1  0  0  0
 23 43  1  0  0  0
 23 44  1  0  0  0
 25 26  1  0  0  0
 26 45  1  0  0  0
 26 46  1  0  0  0
 27 28  1  0  0  0
 27 29  2  0  0  0
M  CHG  1  28  -1
M  END
> <s_m_entry_id>
27400

> <s_m_entry_name>
data_maestro.6

> <s_m_Source_Path>
C:\Users\olshana1\Git\GramNeg-Accumulation\Gram Negative Permeation - OmpF

> <s_m_Source_File>
data_maestro.csv

> <i_m_Source_File_Index>
6

> <s_m_job_name>
glide-dock_Nicaido_neutral

> <s_i_glide_gridfile>
3POX-grid

> <i_i_glide_lignum>
7

> <i_i_glide_rotatable_bonds>
9

> <r_i_docking_score>
-5.12076690160032

> <r_i_glide_ligand_efficiency>
-0.170692230053344

> <r_i_glide_ligand_efficiency_sa>
-0.530380445134195

> <r_i_glide_ligand_efficiency_ln>
-1.16349403526783

> <r_i_glide_gscore>
-5.12076690160032

> <r_i_glide_lipo>
-0.147460020560499

> <r_i_glide_hbond>
-1.04376512148594

> <r_i_glide_metal>
0

> <r_i_glide_rewards>
-0.306161008985072

> <r_i_glide_evdw>
-34.0909652709961

> <r_i_glide_ecoul>
-12.8538599014282

> <r_i_glide_erotb>
0.680611118548691

> <r_i_glide_esite>
-0.671364620353459

> <r_i_glide_emodel>
-69.1266216988085

> <r_i_glide_energy>
-46.9448251724243

> <r_i_glide_einternal>
10.8992013931274

> <i_i_glide_confnum>
264

> <i_i_glide_posenum>
160

> <r_i_glide_eff_state_penalty>
0

> <r_glide_res:A132_vdw>
-0.389865207993553

> <r_glide_res:A132_coul>
-23.2280451716438

> <r_glide_res:A132_hbond>
0

> <r_glide_res:A132_dist>
4.6420245644743

> <r_glide_res:A132_Eint>
-23.6179103796374

> <r_glide_res:A117_vdw>
-6.42110554553351

> <r_glide_res:A117_coul>
10.7532096473304

> <r_glide_res:A117_hbond>
-0.241069056341358

> <r_glide_res:A117_dist>
2.08522171699268

> <r_glide_res:A117_Eint>
4.09103504545552

> <r_glide_res:A113_vdw>
-3.32033724917869

> <r_glide_res:A113_coul>
18.914290431175

> <r_glide_res:A113_hbond>
0

> <r_glide_res:A113_dist>
2.3294625996281

> <r_glide_res:A113_Eint>
15.5939531819963

> <r_glide_res:A82_vdw>
-1.50690812335145

> <r_glide_res:A82_coul>
-35.1730786659003

> <r_glide_res:A82_hbond>
0

> <r_glide_res:A82_dist>
3.06613826180622

> <r_glide_res:A82_Eint>
-36.6799867892518

> <r_glide_res:A42_vdw>
-0.505900995120263

> <r_glide_res:A42_coul>
-52.1967497381475

> <r_glide_res:A42_hbond>
-0.353727361099083

> <r_glide_res:A42_dist>
1.74307023298796

> <r_glide_res:A42_Eint>
-53.0563780943669

> <r_glide_res:A16_vdw>
-0.938532375238624

> <r_glide_res:A16_coul>
-44.817773212353

> <r_glide_res:A16_hbond>
-0.141513981847335

> <r_glide_res:A16_dist>
2.05921425274992

> <r_glide_res:A16_Eint>
-45.8978195694389

> <s_m_source_file>
ligprep_Nicaido_neutral.maegz

> <i_m_source_file_index>
6

> <i_lp_mmshare_version>
58128

> <i_f3d_flags>
0

> <s_lp_Force_Field>
S-OPLS

> <r_lp_Energy>
53.728996

> <b_lp_Chiralities_Consistent>
1

> <s_lp_Variant>
Cefotaxime-1

> <s_epik_input>
W0NIM11DKD1PKU9bQ0gyXUMoPUMxQyg9TylbT0hdKVtDSDJdU1tDQEBIXShOMTIpW0NASF0oQzI9TylbTkhdQyg9TykvQyg9Ti9PW0NIM10pYzNbY0hdc2MobjMpW05IMl0=

> <s_epik_cmdline>
J2VwaWtfcHl0aG9uJywgJy1waHQnLCAnMC4wJywgJy1waCcsICc3LjQnLCAnLW50JywgJy1tYScsICc1MDAnLCAnLWltYWUnLCAnPGluZmlsZS5tYWU+JywgJy1vbWFlJywgJzxvdXRmaWxlLm1hZT4n

> <r_lp_tautomer_probability>
1

> <r_epik_Ionization_Penalty>
  0.0004

> <r_epik_Ionization_Penalty_Charging>
  0.0000

> <r_epik_Ionization_Penalty_Neutral>
  0.0004

> <r_epik_State_Penalty>
  0.0000

> <r_epik_Charging_Adjusted_Penalty>
5.45682606121274e-06

> <i_epik_Tot_Q>
-1

> <i_epik_Tot_abs_Q>
1

> <s_epik_Chemistry_Notes>
This compound has an ester and may undergo hydrolysis at high or low pH. This compound has an imine and may undergo hydrolysis. This compound contains an acetal/aminal-like group ( X-CH(R)-Y where X, Y are N, S, or O) that may be acid/base labile, releasing an aldehyde.

> <s_m_subgroup_title>
glide-dock_Nicaido_neutral_pv1

> <s_m_subgroupid>
glide-dock_Nicaido_neutral_pv1

> <b_m_subgroup_collapsed>
0

$$$$
Aztreonam
                    3D
 Schrodinger Suite 2022-2.
 43 44  0  0  1  0            999 V2000
  -22.1143  -22.1035  -18.8270 C   0  0  0  0  0  0
  -22.9272  -22.6077  -17.6253 C   0  0  1  0  0  0
  -24.4384  -22.9351  -17.7446 C   0  0  2  0  0  0
  -23.9738  -24.4079  -17.8659 C   0  0  0  0  0  0
  -22.7363  -24.0337  -17.3962 N   0  0  0  0  0  0
  -21.2501  -24.7502  -17.1701 S   0  0  0  0  0  0
  -20.7433  -25.0193  -18.5247 O   0  0  0  0  0  0
  -21.5689  -25.9679  -16.4134 O   0  5  0  0  0  0
  -20.4570  -23.7792  -16.4030 O   0  0  0  0  0  0
  -24.4242  -25.4756  -18.2243 O   0  0  0  0  0  0
  -25.0180  -22.3385  -18.9509 N   0  0  0  0  0  0
  -25.9727  -22.8557  -19.7477 C   0  0  0  0  0  0
  -26.3293  -21.9883  -20.9355 C   0  0  0  0  0  0
  -25.3149  -20.9802  -21.3581 C   0  0  0  0  0  0
  -24.0827  -21.3651  -21.8391 C   0  0  0  0  0  0
  -23.1090  -20.0005  -22.3174 S   0  0  0  0  0  0
  -24.4328  -18.9479  -21.8500 C   0  0  0  0  0  0
  -24.3691  -17.5804  -22.0134 N   0  0  0  0  0  0
  -25.4876  -19.5920  -21.3540 N   0  0  0  0  0  0
  -27.4417  -22.1723  -21.5167 N   0  0  0  0  0  0
  -27.6411  -21.3189  -22.6172 O   0  0  0  0  0  0
  -28.9576  -21.4798  -23.1656 C   0  0  0  0  0  0
  -29.0594  -22.8094  -23.9627 C   0  0  0  0  0  0
  -29.1611  -22.7496  -25.2134 O   0  5  0  0  0  0
  -29.0087  -23.8904  -23.3221 O   0  0  0  0  0  0
  -30.0662  -21.4183  -22.0833 C   0  0  0  0  0  0
  -29.1023  -20.2646  -24.1066 C   0  0  0  0  0  0
  -26.5176  -23.9495  -19.5731 O   0  0  0  0  0  0
  -22.3676  -21.0707  -19.0663 H   0  0  0  0  0  0
  -21.0436  -22.1296  -18.6223 H   0  0  0  0  0  0
  -22.2888  -22.7014  -19.7221 H   0  0  0  0  0  0
  -22.7101  -22.0529  -16.7107 H   0  0  0  0  0  0
  -24.9956  -22.7091  -16.8332 H   0  0  0  0  0  0
  -24.6768  -21.4168  -19.1853 H   0  0  0  0  0  0
  -23.6921  -22.3644  -21.9542 H   0  0  0  0  0  0
  -25.2829  -17.1461  -22.0977 H   0  0  0  0  0  0
  -23.7082  -17.2411  -22.6989 H   0  0  0  0  0  0
  -31.0567  -21.3770  -22.5368 H   0  0  0  0  0  0
  -30.0574  -22.2833  -21.4187 H   0  0  0  0  0  0
  -29.9551  -20.5306  -21.4590 H   0  0  0  0  0  0
  -30.0703  -20.2550  -24.6084 H   0  0  0  0  0  0
  -29.0130  -19.3317  -23.5486 H   0  0  0  0  0  0
  -28.3250  -20.2538  -24.8717 H   0  0  0  0  0  0
  1  2  1  0  0  0
  1 29  1  0  0  0
  1 30  1  0  0  0
  1 31  1  0  0  0
  2  5  1  0  0  0
  2  3  1  0  0  0
  2 32  1  0  0  0
  3  4  1  0  0  0
  3 11  1  0  0  0
  3 33  1  0  0  0
  4  5  1  0  0  0
  4 10  2  0  0  0
  5  6  1  0  0  0
  6  7  2  0  0  0
  6  8  1  0  0  0
  6  9  2  0  0  0
 11 12  1  0  0  0
 11 34  1  0  0  0
 12 13  1  0  0  0
 12 28  2  0  0  0
 13 14  1  0  0  0
 13 20  2  3  0  0
 14 19  1  0  0  0
 14 15  2  0  0  0
 15 16  1  0  0  0
 15 35  1  0  0  0
 16 17  1  0  0  0
 17 18  1  0  0  0
 17 19  2  0  0  0
 18 36  1  0  0  0
 18 37  1  0  0  0
 20 21  1  0  0  0
 21 22  1  0  0  0
 22 23  1  0  0  0
 22 26  1  0  0  0
 22 27  1  0  0  0
 23 24  1  0  0  0
 23 25  2  0  0  0
 26 38  1  0  0  0
 26 39  1  0  0  0
 26 40  1  0  0  0
 27 41  1  0  0  0
 27 42  1  0  0  0
 27 43  1  0  0  0
M  CHG  2   8  -1  24  -1
M  END
> <s_m_entry_id>
27401

> <s_m_entry_name>
data_maestro.21

> <s_m_Source_Path>
C:\Users\olshana1\Git\GramNeg-Accumulation\Gram Negative Permeation - OmpF

> <s_m_Source_File>
data_maestro.csv

> <i_m_Source_File_Index>
21

> <s_m_job_name>
glide-dock_Nicaido_neutral

> <s_i_glide_gridfile>
3POX-grid

> <i_i_glide_lignum>
26

> <i_i_glide_rotatable_bonds>
8

> <r_i_docking_score>
-5.1197348830825

> <r_i_glide_ligand_efficiency>
-0.182847674395803

> <r_i_glide_ligand_efficiency_sa>
-0.555233230986692

> <r_i_glide_ligand_efficiency_ln>
-1.1817851329635

> <r_i_glide_gscore>
-5.1197348830825

> <r_i_glide_lipo>
0

> <r_i_glide_hbond>
-1.25248945689922

> <r_i_glide_metal>
0

> <r_i_glide_rewards>
-0.45376354391407

> <r_i_glide_evdw>
-21.7468643188477

> <r_i_glide_ecoul>
-15.245436668396

> <r_i_glide_erotb>
0.635830109179744

> <r_i_glide_esite>
-0.675153275247168

> <r_i_glide_emodel>
-65.3900647847776

> <r_i_glide_energy>
-36.9923009872437

> <r_i_glide_einternal>
6.02233982086182

> <i_i_glide_confnum>
84

> <i_i_glide_posenum>
126

> <r_i_glide_eff_state_penalty>
0

> <r_glide_res:A132_vdw>
-2.55772033284124

> <r_glide_res:A132_coul>
-58.9331132794721

> <r_glide_res:A132_hbond>
-0.0791899722469824

> <r_glide_res:A132_dist>
2.29162007610149

> <r_glide_res:A132_Eint>
-61.5700235845604

> <r_glide_res:A117_vdw>
-2.8585474572831

> <r_glide_res:A117_coul>
32.5677254218364

> <r_glide_res:A117_hbond>
-0.306092119296593

> <r_glide_res:A117_dist>
2.07341328799771

> <r_glide_res:A117_Eint>
29.4030858452567

> <r_glide_res:A113_vdw>
-1.38101812336258

> <r_glide_res:A113_coul>
41.4712033154937

> <r_glide_res:A113_hbond>
0

> <r_glide_res:A113_dist>
3.02413177010431

> <r_glide_res:A113_Eint>
40.0901851921311

> <r_glide_res:A82_vdw>
0.828913275790722

> <r_glide_res:A82_coul>
-66.8733049259244

> <r_glide_res:A82_hbond>
-0.208285949640312

> <r_glide_res:A82_dist>
1.85597920988933

> <r_glide_res:A82_Eint>
-66.252677599774

> <r_glide_res:A42_vdw>
1.52438512165736

> <r_glide_res:A42_coul>
-64.3874546047293

> <r_glide_res:A42_hbond>
-0.2

> <r_glide_res:A42_dist>
1.66730711631308

> <r_glide_res:A42_Eint>
-63.0630694830719

> <r_glide_res:A16_vdw>
-0.376280550554628

> <r_glide_res:A16_coul>
-42.0591045921095

> <r_glide_res:A16_hbond>
0

> <r_glide_res:A16_dist>
3.50008301525688

> <r_glide_res:A16_Eint>
-42.4353851426641

> <s_m_source_file>
ligprep_Nicaido_neutral.maegz

> <i_m_source_file_index>
21

> <i_lp_mmshare_version>
58128

> <i_f3d_flags>
0

> <s_lp_Force_Field>
S-OPLS

> <r_lp_Energy>
55.612973

> <b_lp_Chiralities_Consistent>
1

> <s_lp_Variant>
Aztreonam-1

> <s_epik_input>
Tz1TKD1PKShbT0hdKU4xQyg9TylbQ0BASF0oW0NAQEhdMVtDSDNdKVtOSF1DKD1PKS9DKGMyW2NIXXNjKG4yKVtOSDJdKT1OL09DKFtDSDNdKShbQ0gzXSlDKD1PKVtPSF0=

> <s_epik_cmdline>
J2VwaWtfcHl0aG9uJywgJy1waHQnLCAnMC4wJywgJy1waCcsICc3LjQnLCAnLW50JywgJy1tYScsICc1MDAnLCAnLWltYWUnLCAnPGluZmlsZS5tYWU+JywgJy1vbWFlJywgJzxvdXRmaWxlLm1hZT4n

> <r_lp_tautomer_probability>
1

> <r_epik_Ionization_Penalty>
  0.0004

> <r_epik_Ionization_Penalty_Charging>
  0.0000

> <r_epik_Ionization_Penalty_Neutral>
  0.0004

> <r_epik_State_Penalty>
  0.0000

> <r_epik_Charging_Adjusted_Penalty>
4.45674509427693e-05

> <i_epik_Tot_Q>
-2

> <i_epik_Tot_abs_Q>
2

> <s_epik_Chemistry_Notes>
This compound has an imine and may undergo hydrolysis.

> <s_m_subgroup_title>
glide-dock_Nicaido_neutral_pv1

> <s_m_subgroupid>
glide-dock_Nicaido_neutral_pv1

> <b_m_subgroup_collapsed>
0

$$$$
Ceftazidime
                    3D
 Schrodinger Suite 2022-2.
 58 61  0  0  1  0            999 V2000
  -20.9148  -24.1791  -20.2004 C   0  0  0  0  0  0
  -21.6355  -25.3302  -19.4520 C   0  0  0  0  0  0
  -22.0125  -26.4170  -20.4772 C   0  0  0  0  0  0
  -20.6825  -25.9491  -18.3968 C   0  0  0  0  0  0
  -21.0778  -26.0787  -17.2138 O   0  5  0  0  0  0
  -19.5682  -26.3496  -18.8081 O   0  0  0  0  0  0
  -22.8923  -24.9230  -18.8882 O   0  0  0  0  0  0
  -22.7482  -23.7205  -18.1666 N   0  0  0  0  0  0
  -23.7905  -22.9803  -18.1128 C   0  0  0  0  0  0
  -25.1855  -23.3965  -18.6188 C   0  0  0  0  0  0
  -25.9905  -22.3865  -18.9875 N   0  0  0  0  0  0
  -27.3031  -22.5412  -19.6193 C   0  0  1  0  0  0
  -27.7453  -21.2881  -20.4058 C   0  0  2  0  0  0
  -27.3341  -21.9965  -21.6145 N   0  0  0  0  0  0
  -27.4328  -21.4089  -22.8843 C   0  0  0  0  0  0
  -28.1114  -22.2830  -24.0269 C   0  0  0  0  0  0
  -27.9198  -21.9346  -25.2132 O   0  5  0  0  0  0
  -28.7473  -23.3058  -23.6855 O   0  0  0  0  0  0
  -26.9579  -20.1401  -23.0129 C   0  0  0  0  0  0
  -27.0795  -19.2516  -24.2533 C   0  0  0  0  0  0
  -28.4713  -18.7920  -24.5088 N   0  3  0  0  0  0
  -29.4155  -18.7503  -23.5249 C   0  0  0  0  0  0
  -30.7300  -18.3255  -23.8020 C   0  0  0  0  0  0
  -31.0641  -17.9345  -25.1117 C   0  0  0  0  0  0
  -30.0667  -17.9495  -26.1057 C   0  0  0  0  0  0
  -28.7697  -18.3870  -25.7691 C   0  0  0  0  0  0
  -26.1264  -19.5257  -21.8874 C   0  0  0  0  0  0
  -26.9218  -19.6554  -20.2690 S   0  0  0  0  0  0
  -27.2566  -23.2270  -21.0113 C   0  0  0  0  0  0
  -27.1689  -24.3488  -21.4641 O   0  0  0  0  0  0
  -25.5296  -24.5787  -18.7227 O   0  0  0  0  0  0
  -23.6160  -21.6062  -17.5231 C   0  0  0  0  0  0
  -22.5732  -21.3584  -16.6533 C   0  0  0  0  0  0
  -22.4282  -19.6769  -16.2212 S   0  0  0  0  0  0
  -23.8370  -19.3519  -17.2135 C   0  0  0  0  0  0
  -24.3705  -18.0818  -17.3201 N   0  0  0  0  0  0
  -24.3310  -20.4322  -17.8174 N   0  0  0  0  0  0
  -20.0737  -24.5496  -20.7871 H   0  0  0  0  0  0
  -21.5960  -23.6718  -20.8840 H   0  0  0  0  0  0
  -20.5149  -23.4302  -19.5153 H   0  0  0  0  0  0
  -21.1322  -26.8236  -20.9763 H   0  0  0  0  0  0
  -22.5423  -27.2471  -20.0138 H   0  0  0  0  0  0
  -22.6672  -26.0094  -21.2473 H   0  0  0  0  0  0
  -25.6591  -21.4370  -18.8476 H   0  0  0  0  0  0
  -28.0797  -22.9011  -18.9432 H   0  0  0  0  0  0
  -28.8309  -21.1619  -20.3865 H   0  0  0  0  0  0
  -26.4709  -18.3502  -24.1705 H   0  0  0  0  0  0
  -26.7202  -19.7776  -25.1370 H   0  0  0  0  0  0
  -29.1150  -19.0258  -22.5252 H   0  0  0  0  0  0
  -31.4636  -18.2740  -23.0091 H   0  0  0  0  0  0
  -32.0597  -17.5809  -25.3387 H   0  0  0  0  0  0
  -30.2823  -17.5933  -27.1028 H   0  0  0  0  0  0
  -27.9510  -18.3875  -26.4735 H   0  0  0  0  0  0
  -25.1722  -20.0518  -21.8469 H   0  0  0  0  0  0
  -25.8908  -18.4774  -22.0606 H   0  0  0  0  0  0
  -21.8518  -22.0622  -16.2657 H   0  0  0  0  0  0
  -25.3353  -18.0034  -17.6169 H   0  0  0  0  0  0
  -24.0807  -17.3860  -16.6442 H   0  0  0  0  0  0
  1  2  1  0  0  0
  1 38  1  0  0  0
  1 39  1  0  0  0
  1 40  1  0  0  0
  2  3  1  0  0  0
  2  4  1  0  0  0
  2  7  1  0  0  0
  3 41  1  0  0  0
  3 42  1  0  0  0
  3 43  1  0  0  0
  4  5  1  0  0  0
  4  6  2  0  0  0
  7  8  1  0  0  0
  8  9  2  3  0  0
  9 10  1  0  0  0
  9 32  1  0  0  0
 10 11  1  0  0  0
 10 31  2  0  0  0
 11 12  1  0  0  0
 11 44  1  0  0  0
 12 29  1  0  0  0
 12 13  1  0  0  0
 12 45  1  0  0  0
 13 28  1  0  0  0
 13 14  1  0  0  0
 13 46  1  0  0  0
 14 15  1  0  0  0
 14 29  1  0  0  0
 15 16  1  0  0  0
 15 19  2  0  0  0
 16 17  1  0  0  0
 16 18  2  0  0  0
 19 20  1  0  0  0
 19 27  1  0  0  0
 20 21  1  0  0  0
 20 47  1  0  0  0
 20 48  1  0  0  0
 21 26  1  0  0  0
 21 22  2  0  0  0
 22 23  1  0  0  0
 22 49  1  0  0  0
 23 24  2  0  0  0
 23 50  1  0  0  0
 24 25  1  0  0  0
 24 51  1  0  0  0
 25 26  2  0  0  0
 25 52  1  0  0  0
 26 53  1  0  0  0
 27 28  1  0  0  0
 27 54  1  0  0  0
 27 55  1  0  0  0
 29 30  2  0  0  0
 32 37  1  0  0  0
 32 33  2  0  0  0
 33 34  1  0  0  0
 33 56  1  0  0  0
 34 35  1  0  0  0
 35 36  1  0  0  0
 35 37  2  0  0  0
 36 57  1  0  0  0
 36 58  1  0  0  0
M  CHG  3   5  -1  17  -1  21   1
M  END
> <s_m_entry_id>
27402

> <s_m_entry_name>
data_maestro.30

> <s_m_Source_Path>
C:\Users\olshana1\Git\GramNeg-Accumulation\Gram Negative Permeation - OmpF

> <s_m_Source_File>
data_maestro.csv

> <i_m_Source_File_Index>
30

> <s_m_job_name>
glide-dock_Nicaido_neutral

> <s_i_glide_gridfile>
3POX-grid

> <i_i_glide_lignum>
39

> <i_i_glide_rotatable_bonds>
10

> <r_i_docking_score>
-5.1136246526576

> <r_i_glide_ligand_efficiency>
-0.138206071693449

> <r_i_glide_ligand_efficiency_sa>
-0.460533291572741

> <r_i_glide_ligand_efficiency_ln>
-1.10902530679083

> <r_i_glide_gscore>
-5.1136246526576

> <r_i_glide_lipo>
0

> <r_i_glide_hbond>
-0.909284141530889

> <r_i_glide_metal>
0

> <r_i_glide_rewards>
0.154194666591483

> <r_i_glide_evdw>
-34.518726348877

> <r_i_glide_ecoul>
-17.2847709655762

> <r_i_glide_erotb>
0.556495996469625

> <r_i_glide_esite>
-0.596379211907548

> <r_i_glide_emodel>
-81.2831268154706

> <r_i_glide_energy>
-51.8034973144531

> <r_i_glide_einternal>
13.9843635559082

> <i_i_glide_confnum>
295

> <i_i_glide_posenum>
256

> <r_i_glide_eff_state_penalty>
0

> <r_glide_res:A132_vdw>
2.4767123952231

> <r_glide_res:A132_coul>
-42.5069315737205

> <r_glide_res:A132_hbond>
-0.171474131211983

> <r_glide_res:A132_dist>
1.91659081296978

> <r_glide_res:A132_Eint>
-40.2016933097094

> <r_glide_res:A117_vdw>
-5.40903954838228

> <r_glide_res:A117_coul>
-8.73823407472576

> <r_glide_res:A117_hbond>
0

> <r_glide_res:A117_dist>
2.2632354834021

> <r_glide_res:A117_Eint>
-14.147273623108

> <r_glide_res:A113_vdw>
-2.1220645917812

> <r_glide_res:A113_coul>
8.62058821530203

> <r_glide_res:A113_hbond>
0

> <r_glide_res:A113_dist>
2.97757066174987

> <r_glide_res:A113_Eint>
6.49852362352083

> <r_glide_res:A82_vdw>
-2.081487349364

> <r_glide_res:A82_coul>
-41.0521160950909

> <r_glide_res:A82_hbond>
-0.059112017848419

> <r_glide_res:A82_dist>
2.36488793059594

> <r_glide_res:A82_Eint>
-43.1927154623033

> <r_glide_res:A42_vdw>
-0.0785662647382235

> <r_glide_res:A42_coul>
-36.8656284654186

> <r_glide_res:A42_hbond>
-0.201148603013909

> <r_glide_res:A42_dist>
1.7848745222834

> <r_glide_res:A42_Eint>
-37.1453433331707

> <r_glide_res:A16_vdw>
-0.683374301853222

> <r_glide_res:A16_coul>
-10.9482662719543

> <r_glide_res:A16_hbond>
0

> <r_glide_res:A16_dist>
3.39755750879812

> <r_glide_res:A16_Eint>
-11.6316405738075

> <s_m_source_file>
ligprep_Nicaido_neutral.maegz

> <i_m_source_file_index>
30

> <i_lp_mmshare_version>
58128

> <i_f3d_flags>
0

> <s_lp_Force_Field>
S-OPLS

> <r_lp_Energy>
82.572273

> <b_lp_Chiralities_Consistent>
1

> <s_lp_Variant>
Ceftazidime-2

> <s_epik_input>
W09IXUMoPU8pQyhbQ0gzXSkoW0NIM10pTy9OPUMoYzFbY0hdc2MobjEpW05IMl0pL0MoPU8pW05IXVtDQEBIXTJDKD1PKU4oW0NAQEhdMjMpQyhDKD1PKVtPSF0pPUMoW0NIMl1TMylbQ0gyXVtuK100W2NIXVtjSF1bY0hdW2NIXVtjSF00

> <s_epik_cmdline>
J2VwaWtfcHl0aG9uJywgJy1waHQnLCAnMC4wJywgJy1waCcsICc3LjQnLCAnLW50JywgJy1tYScsICc1MDAnLCAnLWltYWUnLCAnPGluZmlsZS5tYWU+JywgJy1vbWFlJywgJzxvdXRmaWxlLm1hZT4n

> <r_lp_tautomer_probability>
1

> <r_epik_Ionization_Penalty>
  0.0005

> <r_epik_Ionization_Penalty_Charging>
  0.0001

> <r_epik_Ionization_Penalty_Neutral>
  0.0005

> <r_epik_State_Penalty>
  0.0000

> <r_epik_Charging_Adjusted_Penalty>
5.84857251211915e-05

> <i_epik_Tot_Q>
-1

> <i_epik_Tot_abs_Q>
3

> <s_epik_Chemistry_Notes>
This compound has an imine and may undergo hydrolysis. This compound contains an acetal/aminal-like group ( X-CH(R)-Y where X, Y are N, S, or O) that may be acid/base labile, releasing an aldehyde.

> <s_m_subgroup_title>
glide-dock_Nicaido_neutral_pv1

> <s_m_subgroupid>
glide-dock_Nicaido_neutral_pv1

> <b_m_subgroup_collapsed>
0

$$$$
Moxalactam
                    3D
 Schrodinger Suite 2022-2.
 54 57  0  0  1  0            999 V2000
  -27.0385  -21.9042  -18.0243 C   0  0  0  0  0  0
  -26.0119  -22.9306  -18.0134 N   0  0  0  0  0  0
  -24.7785  -22.9547  -17.4844 C   0  0  0  0  0  0
  -24.0620  -21.5497  -16.6699 S   0  0  0  0  0  0
  -22.2887  -21.9707  -16.4974 C   0  0  0  0  0  0
  -21.6233  -22.5857  -17.7286 C   0  0  0  0  0  0
  -21.0239  -23.7993  -17.7422 C   0  0  0  0  0  0
  -20.8565  -24.7088  -16.4961 C   0  0  0  0  0  0
  -21.5682  -25.7381  -16.4360 O   0  5  0  0  0  0
  -19.9692  -24.3496  -15.6897 O   0  0  0  0  0  0
  -20.5790  -24.3058  -18.9633 N   0  0  0  0  0  0
  -20.3643  -23.4234  -20.0979 C   0  0  2  0  0  0
  -21.5247  -22.5964  -20.1752 O   0  0  0  0  0  0
  -21.6986  -21.7718  -19.0208 C   0  0  0  0  0  0
  -20.3502  -24.7135  -20.9634 C   0  0  1  0  0  0
  -20.2051  -25.4688  -19.6066 C   0  0  0  0  0  0
  -19.9074  -26.5794  -19.2140 O   0  0  0  0  0  0
  -21.6527  -24.9190  -21.5962 N   0  0  0  0  0  0
  -22.0376  -24.3584  -22.7555 C   0  0  0  0  0  0
  -23.5546  -24.2878  -23.0202 C   0  0  2  0  0  0
  -23.9691  -25.6573  -23.6133 C   0  0  0  0  0  0
  -23.9059  -26.6401  -22.8389 O   0  5  0  0  0  0
  -24.3638  -25.7519  -24.7988 O   0  0  0  0  0  0
  -23.9321  -23.0640  -23.8744 C   0  0  0  0  0  0
  -24.5814  -21.9732  -23.2505 C   0  0  0  0  0  0
  -24.8502  -20.7872  -23.9637 C   0  0  0  0  0  0
  -24.4780  -20.6830  -25.3170 C   0  0  0  0  0  0
  -24.7241  -19.5491  -26.0338 O   0  0  0  0  0  0
  -23.8463  -21.7664  -25.9548 C   0  0  0  0  0  0
  -23.5690  -22.9460  -25.2390 C   0  0  0  0  0  0
  -21.2325  -23.9125  -23.5746 O   0  0  0  0  0  0
  -19.2558  -24.9704  -21.8577 O   0  0  0  0  0  0
  -17.9327  -24.6583  -21.4348 C   0  0  0  0  0  0
  -24.2240  -24.1457  -17.6876 N   0  0  0  0  0  0
  -25.1670  -24.8447  -18.4134 N   0  0  0  0  0  0
  -26.2323  -24.1279  -18.6136 N   0  0  0  0  0  0
  -26.6030  -20.9194  -17.8558 H   0  0  0  0  0  0
  -27.7636  -22.1074  -17.2356 H   0  0  0  0  0  0
  -27.5541  -21.8967  -18.9850 H   0  0  0  0  0  0
  -21.7538  -21.0554  -16.2442 H   0  0  0  0  0  0
  -22.2008  -22.6147  -15.6242 H   0  0  0  0  0  0
  -19.4271  -22.8717  -20.0127 H   0  0  0  0  0  0
  -22.6655  -21.2789  -19.1109 H   0  0  0  0  0  0
  -20.9387  -20.9906  -18.9979 H   0  0  0  0  0  0
  -22.3746  -25.2934  -20.9978 H   0  0  0  0  0  0
  -24.0585  -24.1930  -22.0569 H   0  0  0  0  0  0
  -24.8495  -22.0241  -22.2052 H   0  0  0  0  0  0
  -25.3343  -19.9584  -23.4672 H   0  0  0  0  0  0
  -24.7690  -18.7030  -25.5824 H   0  0  0  0  0  0
  -23.5521  -21.6822  -26.9913 H   0  0  0  0  0  0
  -23.0464  -23.7485  -25.7390 H   0  0  0  0  0  0
  -17.2328  -24.9990  -22.1979 H   0  0  0  0  0  0
  -17.6569  -25.1492  -20.5013 H   0  0  0  0  0  0
  -17.7900  -23.5833  -21.3277 H   0  0  0  0  0  0
  1  2  1  0  0  0
  1 37  1  0  0  0
  1 38  1  0  0  0
  1 39  1  0  0  0
  2 36  1  0  0  0
  2  3  1  0  0  0
  3  4  1  0  0  0
  3 34  2  0  0  0
  4  5  1  0  0  0
  5  6  1  0  0  0
  5 40  1  0  0  0
  5 41  1  0  0  0
  6 14  1  0  0  0
  6  7  2  0  0  0
  7  8  1  0  0  0
  7 11  1  0  0  0
  8  9  1  0  0  0
  8 10  2  0  0  0
 11 16  1  0  0  0
 11 12  1  0  0  0
 12 13  1  0  0  0
 12 15  1  0  0  0
 12 42  1  0  0  0
 13 14  1  0  0  0
 14 43  1  0  0  0
 14 44  1  0  0  0
 15 16  1  0  0  0
 15 18  1  0  0  0
 15 32  1  0  0  0
 16 17  2  0  0  0
 18 19  1  0  0  0
 18 45  1  0  0  0
 19 20  1  0  0  0
 19 31  2  0  0  0
 20 21  1  0  0  0
 20 24  1  0  0  0
 20 46  1  0  0  0
 21 22  1  0  0  0
 21 23  2  0  0  0
 24 30  1  0  0  0
 24 25  2  0  0  0
 25 26  1  0  0  0
 25 47  1  0  0  0
 26 27  2  0  0  0
 26 48  1  0  0  0
 27 28  1  0  0  0
 27 29  1  0  0  0
 28 49  1  0  0  0
 29 30  2  0  0  0
 29 50  1  0  0  0
 30 51  1  0  0  0
 32 33  1  0  0  0
 33 52  1  0  0  0
 33 53  1  0  0  0
 33 54  1  0  0  0
 34 35  1  0  0  0
 35 36  2  0  0  0
M  CHG  2   9  -1  22  -1
M  END
> <s_m_entry_id>
27403

> <s_m_entry_name>
data_maestro.20

> <s_m_Source_Path>
C:\Users\olshana1\Git\GramNeg-Accumulation\Gram Negative Permeation - OmpF

> <s_m_Source_File>
data_maestro.csv

> <i_m_Source_File_Index>
20

> <s_m_job_name>
glide-dock_Nicaido_neutral

> <s_i_glide_gridfile>
3POX-grid

> <i_i_glide_lignum>
25

> <i_i_glide_rotatable_bonds>
11

> <r_i_docking_score>
-5.1110019311744

> <r_i_glide_ligand_efficiency>
-0.141972275865956

> <r_i_glide_ligand_efficiency_sa>
-0.46878212570942

> <r_i_glide_ligand_efficiency_ln>
-1.11508253806757

> <r_i_glide_gscore>
-5.1110019311744

> <r_i_glide_lipo>
0

> <r_i_glide_hbond>
-1.06540344238562

> <r_i_glide_metal>
0

> <r_i_glide_rewards>
0.0682939908307921

> <r_i_glide_evdw>
-29.6689357757568

> <r_i_glide_ecoul>
-16.3914546966553

> <r_i_glide_erotb>
0.534860792752126

> <r_i_glide_esite>
-0.706588279085561

> <r_i_glide_emodel>
-72.8605498656816

> <r_i_glide_energy>
-46.0603904724121

> <r_i_glide_einternal>
17.771167755127

> <i_i_glide_confnum>
157

> <i_i_glide_posenum>
323

> <r_i_glide_eff_state_penalty>
0

> <r_glide_res:A132_vdw>
-0.401830032720219

> <r_glide_res:A132_coul>
-59.092590397412

> <r_glide_res:A132_hbond>
-0.0810265981069334

> <r_glide_res:A132_dist>
2.0605009480277

> <r_glide_res:A132_Eint>
-59.5754470282392

> <r_glide_res:A117_vdw>
-0.719965874726344

> <r_glide_res:A117_coul>
23.4231663821164

> <r_glide_res:A117_hbond>
-0.16

> <r_glide_res:A117_dist>
1.90057922930868

> <r_glide_res:A117_Eint>
22.54320050739

> <r_glide_res:A113_vdw>
-0.599260481727024

> <r_glide_res:A113_coul>
26.7706323613131

> <r_glide_res:A113_hbond>
0

> <r_glide_res:A113_dist>
3.60199983088959

> <r_glide_res:A113_Eint>
26.1713718795861

> <r_glide_res:A82_vdw>
-0.418828672232073

> <r_glide_res:A82_coul>
-59.522228818182

> <r_glide_res:A82_hbond>
-0.187798309547249

> <r_glide_res:A82_dist>
1.8833857468288

> <r_glide_res:A82_Eint>
-60.1288557999613

> <r_glide_res:A42_vdw>
-1.57481932697016

> <r_glide_res:A42_coul>
-47.1733561640344

> <r_glide_res:A42_hbond>
0

> <r_glide_res:A42_dist>
2.76567480233306

> <r_glide_res:A42_Eint>
-48.7481754910045

> <r_glide_res:A16_vdw>
-0.100333710449949

> <r_glide_res:A16_coul>
-27.9289001311354

> <r_glide_res:A16_hbond>
0

> <r_glide_res:A16_dist>
6.16096859430242

> <r_glide_res:A16_Eint>
-28.0292338415853

> <s_m_source_file>
ligprep_Nicaido_neutral.maegz

> <i_m_source_file_index>
20

> <i_lp_mmshare_version>
58128

> <i_f3d_flags>
0

> <s_lp_Force_Field>
S-OPLS

> <r_lp_Energy>
52.146636

> <b_lp_Chiralities_Consistent>
1

> <s_lp_Variant>
Moxalactam-1

> <s_epik_input>
bjFubmMobjFbQ0gzXSlTW0NIMl1DKD1DMkMoPU8pW09IXSlbQ0gyXU9bQ0BASF0oTjIzKVtDQF0oQzM9TykoT1tDSDNdKVtOSF1DKD1PKVtDQEhdKEMoPU8pW09IXSljNFtjSF1bY0hdYyhbT0hdKVtjSF1bY0hdNA==

> <s_epik_cmdline>
J2VwaWtfcHl0aG9uJywgJy1waHQnLCAnMC4wJywgJy1waCcsICc3LjQnLCAnLW50JywgJy1tYScsICc1MDAnLCAnLWltYWUnLCAnPGluZmlsZS5tYWU+JywgJy1vbWFlJywgJzxvdXRmaWxlLm1hZT4n

> <r_lp_tautomer_probability>
1

> <r_epik_Ionization_Penalty>
  0.0029

> <r_epik_Ionization_Penalty_Charging>
  0.0001

> <r_epik_Ionization_Penalty_Neutral>
  0.0029

> <r_epik_State_Penalty>
  0.0000

> <r_epik_Charging_Adjusted_Penalty>
5.78268703870383e-05

> <i_epik_Tot_Q>
-2

> <i_epik_Tot_abs_Q>
2

> <s_epik_Chemistry_Notes>
This compound contains an acetal/aminal-like group ( X-CH(R)-Y where X, Y are N, S, or O) that may be acid/base labile, releasing an aldehyde.

> <s_m_subgroup_title>
glide-dock_Nicaido_neutral_pv1

> <s_m_subgroupid>
glide-dock_Nicaido_neutral_pv1

> <b_m_subgroup_collapsed>
0

$$$$
Ceftriaxone
                    3D
 Schrodinger Suite 2022-2.
 52 55  0  0  1  0            999 V2000
  -20.4220  -23.1776  -23.8682 C   0  0  0  0  0  0
  -21.4846  -23.7544  -23.0545 N   0  0  0  0  0  0
  -21.7624  -23.2586  -21.7543 C   0  0  0  0  0  0
  -20.2663  -22.4949  -20.9698 S   0  0  0  0  0  0
  -20.4358  -22.6257  -19.1418 C   0  0  0  0  0  0
  -21.8605  -22.5555  -18.6081 C   0  0  0  0  0  0
  -22.5512  -23.6376  -18.1521 C   0  0  0  0  0  0
  -23.9231  -23.5710  -17.8496 N   0  0  0  0  0  0
  -24.6678  -22.3364  -17.6571 C   0  0  2  0  0  0
  -25.9584  -23.1706  -17.7305 C   0  0  2  0  0  0
  -25.0339  -24.3808  -18.0133 C   0  0  0  0  0  0
  -25.1625  -25.5495  -18.3147 O   0  0  0  0  0  0
  -26.7705  -22.7968  -18.8741 N   0  0  0  0  0  0
  -27.8504  -23.4488  -19.3320 C   0  0  0  0  0  0
  -28.4436  -22.8709  -20.6089 C   0  0  0  0  0  0
  -27.8802  -21.5577  -21.0399 C   0  0  0  0  0  0
  -27.9184  -20.4628  -20.2048 C   0  0  0  0  0  0
  -26.9715  -19.1496  -20.8134 S   0  0  0  0  0  0
  -26.6817  -20.0789  -22.2719 C   0  0  0  0  0  0
  -25.9646  -19.5508  -23.3298 N   0  0  0  0  0  0
  -27.1901  -21.3121  -22.2372 N   0  0  0  0  0  0
  -29.3178  -23.5425  -21.2509 N   0  0  0  0  0  0
  -29.7423  -22.9190  -22.4322 O   0  0  0  0  0  0
  -31.1038  -23.2577  -22.6291 C   0  0  0  0  0  0
  -28.2993  -24.4703  -18.8123 O   0  0  0  0  0  0
  -24.2422  -21.1233  -18.9455 S   0  0  0  0  0  0
  -22.4526  -21.1518  -18.7217 C   0  0  0  0  0  0
  -21.9006  -25.0604  -17.9664 C   0  0  0  0  0  0
  -21.9689  -25.5496  -16.8135 O   0  5  0  0  0  0
  -21.3565  -25.5827  -18.9642 O   0  0  0  0  0  0
  -22.9480  -23.3244  -21.2166 N   0  0  0  0  0  0
  -23.9727  -23.9849  -21.8895 C   0  0  0  0  0  0
  -23.5656  -24.8799  -23.0992 C   0  0  0  0  0  0
  -24.3689  -25.7102  -23.5097 O   0  0  0  0  0  0
  -22.3274  -24.7495  -23.6133 N   0  5  0  0  0  0
  -25.1578  -23.9495  -21.5559 O   0  0  0  0  0  0
  -19.4449  -23.5298  -23.5362 H   0  0  0  0  0  0
  -20.5421  -23.4587  -24.9149 H   0  0  0  0  0  0
  -20.4382  -22.0880  -23.8189 H   0  0  0  0  0  0
  -19.8629  -21.8131  -18.6950 H   0  0  0  0  0  0
  -19.9199  -23.5300  -18.8284 H   0  0  0  0  0  0
  -24.4880  -21.9255  -16.6617 H   0  0  0  0  0  0
  -26.5040  -23.1496  -16.7917 H   0  0  0  0  0  0
  -26.4595  -21.9737  -19.3743 H   0  0  0  0  0  0
  -28.3706  -20.3683  -19.2264 H   0  0  0  0  0  0
  -25.9878  -20.0120  -24.2247 H   0  0  0  0  0  0
  -25.8519  -18.5441  -23.3790 H   0  0  0  0  0  0
  -31.4690  -22.7909  -23.5436 H   0  0  0  0  0  0
  -31.2420  -24.3359  -22.7200 H   0  0  0  0  0  0
  -31.7200  -22.8969  -21.8033 H   0  0  0  0  0  0
  -22.1940  -20.5911  -17.8235 H   0  0  0  0  0  0
  -22.0156  -20.6190  -19.5661 H   0  0  0  0  0  0
  1  2  1  0  0  0
  1 37  1  0  0  0
  1 38  1  0  0  0
  1 39  1  0  0  0
  2 35  1  0  0  0
  2  3  1  0  0  0
  3  4  1  0  0  0
  3 31  2  0  0  0
  4  5  1  0  0  0
  5  6  1  0  0  0
  5 40  1  0  0  0
  5 41  1  0  0  0
  6 27  1  0  0  0
  6  7  2  0  0  0
  7  8  1  0  0  0
  7 28  1  0  0  0
  8 11  1  0  0  0
  8  9  1  0  0  0
  9 10  1  0  0  0
  9 26  1  0  0  0
  9 42  1  0  0  0
 10 11  1  0  0  0
 10 13  1  0  0  0
 10 43  1  0  0  0
 11 12  2  0  0  0
 13 14  1  0  0  0
 13 44  1  0  0  0
 14 15  1  0  0  0
 14 25  2  0  0  0
 15 16  1  0  0  0
 15 22  2  3  0  0
 16 21  1  0  0  0
 16 17  2  0  0  0
 17 18  1  0  0  0
 17 45  1  0  0  0
 18 19  1  0  0  0
 19 20  1  0  0  0
 19 21  2  0  0  0
 20 46  1  0  0  0
 20 47  1  0  0  0
 22 23  1  0  0  0
 23 24  1  0  0  0
 24 48  1  0  0  0
 24 49  1  0  0  0
 24 50  1  0  0  0
 26 27  1  0  0  0
 27 51  1  0  0  0
 27 52  1  0  0  0
 28 29  1  0  0  0
 28 30  2  0  0  0
 31 32  1  0  0  0
 32 33  1  0  0  0
 32 36  2  0  0  0
 33 34  2  0  0  0
 33 35  1  0  0  0
M  CHG  2  29  -1  35  -1
M  END
> <s_m_entry_id>
27404

> <s_m_entry_name>
data_maestro.22

> <s_m_Source_Path>
C:\Users\olshana1\Git\GramNeg-Accumulation\Gram Negative Permeation - OmpF

> <s_m_Source_File>
data_maestro.csv

> <i_m_Source_File_Index>
22

> <s_m_job_name>
glide-dock_Nicaido_neutral

> <s_i_glide_gridfile>
3POX-grid

> <i_i_glide_lignum>
28

> <i_i_glide_rotatable_bonds>
9

> <r_i_docking_score>
-5.10910622946197

> <r_i_glide_ligand_efficiency>
-0.141919617485055

> <r_i_glide_ligand_efficiency_sa>
-0.468608251566849

> <r_i_glide_ligand_efficiency_ln>
-1.11466894716986

> <r_i_glide_gscore>
-5.10910622946197

> <r_i_glide_lipo>
0

> <r_i_glide_hbond>
-1.01962404808985

> <r_i_glide_metal>
0

> <r_i_glide_rewards>
0.257595818627861

> <r_i_glide_evdw>
-28.6185264587402

> <r_i_glide_ecoul>
-17.3152122497559

> <r_i_glide_erotb>
0.472124986767549

> <r_i_glide_esite>
-0.790994826367143

> <r_i_glide_emodel>
-77.3802560829366

> <r_i_glide_energy>
-45.9337387084961

> <r_i_glide_einternal>
6.48779773712158

> <i_i_glide_confnum>
238

> <i_i_glide_posenum>
373

> <r_i_glide_eff_state_penalty>
0

> <r_glide_res:A132_vdw>
-2.91671055705395

> <r_glide_res:A132_coul>
-65.6902703672873

> <r_glide_res:A132_hbond>
-0.262366778560567

> <r_glide_res:A132_dist>
2.04806443972652

> <r_glide_res:A132_Eint>
-68.8693477029018

> <r_glide_res:A117_vdw>
-0.873137505214129

> <r_glide_res:A117_coul>
30.2139480822188

> <r_glide_res:A117_hbond>
-0.0366786271721869

> <r_glide_res:A117_dist>
2.42552005095717

> <r_glide_res:A117_Eint>
29.3041319498325

> <r_glide_res:A113_vdw>
-2.97130634225603

> <r_glide_res:A113_coul>
28.5833928585719

> <r_glide_res:A113_hbond>
0

> <r_glide_res:A113_dist>
2.62604075155155

> <r_glide_res:A113_Eint>
25.6120865163159

> <r_glide_res:A82_vdw>
-1.72507091853992

> <r_glide_res:A82_coul>
-57.7196920252473

> <r_glide_res:A82_hbond>
-0.0405786423570944

> <r_glide_res:A82_dist>
2.23207124541393

> <r_glide_res:A82_Eint>
-59.4853415861443

> <r_glide_res:A42_vdw>
-0.891926723456916

> <r_glide_res:A42_coul>
-45.5487572658039

> <r_glide_res:A42_hbond>
0

> <r_glide_res:A42_dist>
3.66446899610759

> <r_glide_res:A42_Eint>
-46.4406839892608

> <r_glide_res:A16_vdw>
-0.109623873109369

> <r_glide_res:A16_coul>
-28.2466264022064

> <r_glide_res:A16_hbond>
0

> <r_glide_res:A16_dist>
4.99801789780164

> <r_glide_res:A16_Eint>
-28.3562502753158

> <s_m_source_file>
ligprep_Nicaido_neutral.maegz

> <i_m_source_file_index>
22

> <i_lp_mmshare_version>
58128

> <i_f3d_flags>
0

> <s_lp_Force_Field>
S-OPLS

> <r_lp_Energy>
109.903222

> <b_lp_Chiralities_Consistent>
1

> <s_lp_Variant>
Ceftriaxone-1

> <s_epik_input>
W09IXWMobjEpYyg9TyluYyhuMVtDSDNdKVNbQ0gyXUMoPUMyQyg9TylbT0hdKVtDSDJdU1tDQEhdKE4yMylbQ0BIXShDMz1PKVtOSF1DKD1PKS9DKD1OL09bQ0gzXSljNFtjSF1zYyhuNClbTkgyXQ==

> <s_epik_cmdline>
J2VwaWtfcHl0aG9uJywgJy1waHQnLCAnMC4wJywgJy1waCcsICc3LjQnLCAnLW50JywgJy1tYScsICc1MDAnLCAnLWltYWUnLCAnPGluZmlsZS5tYWU+JywgJy1vbWFlJywgJzxvdXRmaWxlLm1hZT4n

> <r_lp_tautomer_probability>
1

> <r_epik_Ionization_Penalty>
  0.0014

> <r_epik_Ionization_Penalty_Charging>
  0.0010

> <r_epik_Ionization_Penalty_Neutral>
  0.0004

> <r_epik_State_Penalty>
  0.0000

> <r_epik_Charging_Adjusted_Penalty>
0.000994184415634904

> <i_epik_Tot_Q>
-2

> <i_epik_Tot_abs_Q>
2

> <s_epik_Chemistry_Notes>
This compound has an imine and may undergo hydrolysis. This compound contains an acetal/aminal-like group ( X-CH(R)-Y where X, Y are N, S, or O) that may be acid/base labile, releasing an aldehyde.

> <s_m_subgroup_title>
glide-dock_Nicaido_neutral_pv1

> <s_m_subgroupid>
glide-dock_Nicaido_neutral_pv1

> <b_m_subgroup_collapsed>
0

$$$$
Cefuroxime
                    3D
 Schrodinger Suite 2022-2.
 44 46  0  0  1  0            999 V2000
  -34.4873  -21.0039  -29.0255 C   0  0  0  0  0  0
  -33.5685  -20.4551  -28.0977 O   0  0  0  0  0  0
  -33.8150  -19.0765  -28.0233 N   0  0  0  0  0  0
  -33.0685  -18.4192  -27.2198 C   0  0  0  0  0  0
  -33.2649  -16.9799  -27.1480 C   0  0  0  0  0  0
  -32.5627  -15.9057  -27.6133 C   0  0  0  0  0  0
  -33.2819  -14.7493  -27.2134 C   0  0  0  0  0  0
  -34.3691  -15.2006  -26.5225 C   0  0  0  0  0  0
  -34.3830  -16.5623  -26.4854 O   0  0  0  0  0  0
  -31.9433  -18.9636  -26.3233 C   0  0  0  0  0  0
  -31.3849  -18.0522  -25.4927 N   0  0  0  0  0  0
  -30.2615  -18.2166  -24.5503 C   0  0  1  0  0  0
  -30.4545  -19.3396  -23.5092 C   0  0  1  0  0  0
  -29.1335  -19.8079  -23.8953 N   0  0  0  0  0  0
  -29.0673  -19.0662  -25.0493 C   0  0  0  0  0  0
  -28.3476  -19.1400  -26.0158 O   0  0  0  0  0  0
  -28.5959  -20.9624  -23.3194 C   0  0  0  0  0  0
  -28.1874  -22.1385  -24.2928 C   0  0  0  0  0  0
  -27.1685  -22.8095  -24.0136 O   0  5  0  0  0  0
  -28.9278  -22.3496  -25.2815 O   0  0  0  0  0  0
  -28.5342  -20.9943  -21.9676 C   0  0  0  0  0  0
  -28.9478  -19.7750  -21.1419 C   0  0  0  0  0  0
  -30.4944  -18.9911  -21.7140 S   0  0  0  0  0  0
  -27.9683  -22.1411  -21.1442 C   0  0  0  0  0  0
  -28.9860  -22.7608  -20.3845 O   0  0  0  0  0  0
  -29.7568  -23.7166  -20.9057 C   0  0  0  0  0  0
  -30.7672  -23.9496  -20.0135 N   0  0  0  0  0  0
  -29.5691  -24.3106  -21.9706 O   0  0  0  0  0  0
  -31.5703  -20.1356  -26.3842 O   0  0  0  0  0  0
  -34.3237  -22.0772  -29.1207 H   0  0  0  0  0  0
  -35.5180  -20.8527  -28.7005 H   0  0  0  0  0  0
  -34.3656  -20.5567  -30.0133 H   0  0  0  0  0  0
  -31.6312  -15.9505  -28.1557 H   0  0  0  0  0  0
  -33.0202  -13.7173  -27.3881 H   0  0  0  0  0  0
  -35.1856  -14.7096  -26.0134 H   0  0  0  0  0  0
  -31.7549  -17.1121  -25.5336 H   0  0  0  0  0  0
  -29.9689  -17.2772  -24.0787 H   0  0  0  0  0  0
  -31.2148  -20.0778  -23.7722 H   0  0  0  0  0  0
  -29.0753  -20.0456  -20.0939 H   0  0  0  0  0  0
  -28.1436  -19.0396  -21.1806 H   0  0  0  0  0  0
  -27.4423  -22.8865  -21.7335 H   0  0  0  0  0  0
  -27.2283  -21.7302  -20.4577 H   0  0  0  0  0  0
  -30.8407  -23.2763  -19.2408 H   0  0  0  0  0  0
  -31.4983  -24.6029  -20.2514 H   0  0  0  0  0  0
  1  2  1  0  0  0
  1 30  1  0  0  0
  1 31  1  0  0  0
  1 32  1  0  0  0
  2  3  1  0  0  0
  3  4  2  3  0  0
  4  5  1  0  0  0
  4 10  1  0  0  0
  5  9  1  0  0  0
  5  6  2  0  0  0
  6  7  1  0  0  0
  6 33  1  0  0  0
  7  8  2  0  0  0
  7 34  1  0  0  0
  8  9  1  0  0  0
  8 35  1  0  0  0
 10 11  1  0  0  0
 10 29  2  0  0  0
 11 12  1  0  0  0
 11 36  1  0  0  0
 12 15  1  0  0  0
 12 13  1  0  0  0
 12 37  1  0  0  0
 13 23  1  0  0  0
 13 14  1  0  0  0
 13 38  1  0  0  0
 14 15  1  0  0  0
 14 17  1  0  0  0
 15 16  2  0  0  0
 17 18  1  0  0  0
 17 21  2  0  0  0
 18 19  1  0  0  0
 18 20  2  0  0  0
 21 22  1  0  0  0
 21 24  1  0  0  0
 22 23  1  0  0  0
 22 39  1  0  0  0
 22 40  1  0  0  0
 24 25  1  0  0  0
 24 41  1  0  0  0
 24 42  1  0  0  0
 25 26  1  0  0  0
 26 27  1  0  0  0
 26 28  2  0  0  0
 27 43  1  0  0  0
 27 44  1  0  0  0
M  CHG  1  19  -1
M  END
> <s_m_entry_id>
27405

> <s_m_entry_name>
data_maestro.10

> <s_m_Source_Path>
C:\Users\olshana1\Git\GramNeg-Accumulation\Gram Negative Permeation - OmpF

> <s_m_Source_File>
data_maestro.csv

> <i_m_Source_File_Index>
10

> <s_m_job_name>
glide-dock_Nicaido_neutral

> <s_i_glide_gridfile>
3POX-grid

> <i_i_glide_lignum>
14

> <i_i_glide_rotatable_bonds>
9

> <r_i_docking_score>
-5.10596344489732

> <r_i_glide_ligand_efficiency>
-0.176067704996459

> <r_i_glide_ligand_efficiency_sa>
-0.54093577191335

> <r_i_glide_ligand_efficiency_ln>
-1.16913615282002

> <r_i_glide_gscore>
-5.10596344489732

> <r_i_glide_lipo>
-0.273112929362401

> <r_i_glide_hbond>
-0.763751736163062

> <r_i_glide_metal>
0

> <r_i_glide_rewards>
-0.516037449036211

> <r_i_glide_evdw>
-29.4826488494873

> <r_i_glide_ecoul>
-13.7112874984741

> <r_i_glide_erotb>
0.663396273735242

> <r_i_glide_esite>
-0.685632036825404

> <r_i_glide_emodel>
-65.9878199063546

> <r_i_glide_energy>
-43.1939363479614

> <r_i_glide_einternal>
8.09524059295654

> <i_i_glide_confnum>
81

> <i_i_glide_posenum>
198

> <r_i_glide_eff_state_penalty>
0

> <r_glide_res:A132_vdw>
-0.792458858789192

> <r_glide_res:A132_coul>
-29.1877054000186

> <r_glide_res:A132_hbond>
-0.00810885516246605

> <r_glide_res:A132_dist>
2.42580354953052

> <r_glide_res:A132_Eint>
-29.9882731139702

> <r_glide_res:A117_vdw>
-5.29236513265204

> <r_glide_res:A117_coul>
27.7598243296082

> <r_glide_res:A117_hbond>
0

> <r_glide_res:A117_dist>
2.19423331085163

> <r_glide_res:A117_Eint>
22.4674591969562

> <r_glide_res:A113_vdw>
-1.09454665809964

> <r_glide_res:A113_coul>
15.4451572623611

> <r_glide_res:A113_hbond>
-0.16

> <r_glide_res:A113_dist>
1.72977740293858

> <r_glide_res:A113_Eint>
14.1906106042615

> <r_glide_res:A82_vdw>
-1.8205259049993

> <r_glide_res:A82_coul>
-45.9455421112771

> <r_glide_res:A82_hbond>
-0.165909894956952

> <r_glide_res:A82_dist>
2.07710053475039

> <r_glide_res:A82_Eint>
-47.9319779112333

> <r_glide_res:A42_vdw>
-0.37712722596999

> <r_glide_res:A42_coul>
-56.4124996460335

> <r_glide_res:A42_hbond>
-0.393609545896408

> <r_glide_res:A42_dist>
1.88181896060121

> <r_glide_res:A42_Eint>
-57.1832364178999

> <r_glide_res:A16_vdw>
-1.5991764530721

> <r_glide_res:A16_coul>
-47.0219729129531

> <r_glide_res:A16_hbond>
-0.00758189042957079

> <r_glide_res:A16_dist>
2.04000814563324

> <r_glide_res:A16_Eint>
-48.6287312564548

> <s_m_source_file>
ligprep_Nicaido_neutral.maegz

> <i_m_source_file_index>
10

> <i_lp_mmshare_version>
58128

> <i_f3d_flags>
0

> <s_lp_Force_Field>
S-OPLS

> <r_lp_Energy>
45.356438

> <b_lp_Chiralities_Consistent>
1

> <s_lp_Variant>
Cefuroxime-2

> <s_epik_input>
bzFbY0hdW2NIXVtjSF1jMS9DKD1OXE9bQ0gzXSlDKD1PKVtOSF1bQ0BASF0yQyg9TylOKFtDQEhdMjMpQyhDKD1PKVtPSF0pPUMoW0NIMl1TMylbQ0gyXU9DKD1PKVtOSDJd

> <s_epik_cmdline>
J2VwaWtfcHl0aG9uJywgJy1waHQnLCAnMC4wJywgJy1waCcsICc3LjQnLCAnLW50JywgJy1tYScsICc1MDAnLCAnLWltYWUnLCAnPGluZmlsZS5tYWU+JywgJy1vbWFlJywgJzxvdXRmaWxlLm1hZT4n

> <r_lp_tautomer_probability>
1

> <r_epik_Ionization_Penalty>
  0.0000

> <r_epik_Ionization_Penalty_Charging>
  0.0000

> <r_epik_Ionization_Penalty_Neutral>
  0.0000

> <r_epik_State_Penalty>
  0.0000

> <r_epik_Charging_Adjusted_Penalty>
8.57368987839538e-06

> <i_epik_Tot_Q>
-1

> <i_epik_Tot_abs_Q>
1

> <s_epik_Chemistry_Notes>
This compound has an ester and may undergo hydrolysis at high or low pH. This compound has an imine and may undergo hydrolysis. This compound contains an acetal/aminal-like group ( X-CH(R)-Y where X, Y are N, S, or O) that may be acid/base labile, releasing an aldehyde.

> <s_m_subgroup_title>
glide-dock_Nicaido_neutral_pv1

> <s_m_subgroupid>
glide-dock_Nicaido_neutral_pv1

> <b_m_subgroup_collapsed>
0

$$$$
Cyclacillin
                    3D
 Schrodinger Suite 2022-2.
 46 48  0  0  1  0            999 V2000
  -23.2895  -22.0474  -20.7569 C   0  0  0  0  0  0
  -24.0803  -21.2775  -21.8372 C   0  0  0  0  0  0
  -25.1143  -22.1361  -22.6602 C   0  0  2  0  0  0
  -26.3971  -21.8254  -22.0620 N   0  0  0  0  0  0
  -26.7150  -20.5107  -21.5460 C   0  0  2  0  0  0
  -25.0773  -20.0109  -20.9403 S   0  0  0  0  0  0
  -27.8282  -21.1681  -20.7084 C   0  0  2  0  0  0
  -27.4592  -22.4662  -21.4623 C   0  0  0  0  0  0
  -27.8466  -23.6160  -21.5005 O   0  0  0  0  0  0
  -29.1690  -20.6132  -20.9687 N   0  0  0  0  0  0
  -29.7708  -20.4050  -22.1611 C   0  0  0  0  0  0
  -31.0796  -19.5750  -22.1877 C   0  0  0  0  0  0
  -31.3122  -18.9765  -23.6045 C   0  0  0  0  0  0
  -32.6963  -18.3185  -23.7674 C   0  0  0  0  0  0
  -33.8257  -19.2874  -23.4055 C   0  0  0  0  0  0
  -33.6385  -19.8308  -21.9850 C   0  0  0  0  0  0
  -32.2636  -20.5032  -21.8161 C   0  0  0  0  0  0
  -30.9522  -18.4714  -21.2130 N   0  3  0  0  0  0
  -29.3023  -20.8318  -23.2187 O   0  0  0  0  0  0
  -24.8408  -23.6455  -22.8162 C   0  0  0  0  0  0
  -24.7257  -24.0990  -23.9783 O   0  5  0  0  0  0
  -24.8024  -24.3494  -21.7831 O   0  0  0  0  0  0
  -23.0924  -20.5724  -22.7842 C   0  0  0  0  0  0
  -22.6399  -22.8064  -21.1947 H   0  0  0  0  0  0
  -23.9619  -22.5403  -20.0530 H   0  0  0  0  0  0
  -22.6599  -21.3704  -20.1838 H   0  0  0  0  0  0
  -25.1800  -21.7264  -23.6700 H   0  0  0  0  0  0
  -27.0559  -19.8197  -22.3208 H   0  0  0  0  0  0
  -27.5774  -21.1890  -19.6461 H   0  0  0  0  0  0
  -29.6845  -20.3517  -20.1295 H   0  0  0  0  0  0
  -30.5318  -18.2495  -23.8439 H   0  0  0  0  0  0
  -31.2422  -19.7576  -24.3636 H   0  0  0  0  0  0
  -32.7704  -17.4351  -23.1363 H   0  0  0  0  0  0
  -32.8203  -17.9686  -24.7913 H   0  0  0  0  0  0
  -34.7902  -18.7867  -23.4890 H   0  0  0  0  0  0
  -33.8437  -20.1151  -24.1149 H   0  0  0  0  0  0
  -33.7514  -19.0260  -21.2583 H   0  0  0  0  0  0
  -34.4285  -20.5462  -21.7551 H   0  0  0  0  0  0
  -32.2430  -21.3926  -22.4468 H   0  0  0  0  0  0
  -32.1620  -20.8659  -20.7924 H   0  0  0  0  0  0
  -31.7491  -17.8560  -21.2829 H   0  0  0  0  0  0
  -30.9057  -18.8596  -20.2693 H   0  0  0  0  0  0
  -22.4978  -21.2973  -23.3420 H   0  0  0  0  0  0
  -23.6146  -19.9430  -23.5071 H   0  0  0  0  0  0
  -22.4062  -19.9305  -22.2319 H   0  0  0  0  0  0
  -30.1090  -17.9382  -21.3904 H   0  0  0  0  0  0
  1  2  1  0  0  0
  1 24  1  0  0  0
  1 25  1  0  0  0
  1 26  1  0  0  0
  2  6  1  0  0  0
  2  3  1  0  0  0
  2 23  1  0  0  0
  3  4  1  0  0  0
  3 20  1  0  0  0
  3 27  1  0  0  0
  4  8  1  0  0  0
  4  5  1  0  0  0
  5  6  1  0  0  0
  5  7  1  0  0  0
  5 28  1  0  0  0
  7  8  1  0  0  0
  7 10  1  0  0  0
  7 29  1  0  0  0
  8  9  2  0  0  0
 10 11  1  0  0  0
 10 30  1  0  0  0
 11 12  1  0  0  0
 11 19  2  0  0  0
 12 17  1  0  0  0
 12 13  1  0  0  0
 12 18  1  0  0  0
 13 14  1  0  0  0
 13 31  1  0  0  0
 13 32  1  0  0  0
 14 15  1  0  0  0
 14 33  1  0  0  0
 14 34  1  0  0  0
 15 16  1  0  0  0
 15 35  1  0  0  0
 15 36  1  0  0  0
 16 17  1  0  0  0
 16 37  1  0  0  0
 16 38  1  0  0  0
 17 39  1  0  0  0
 17 40  1  0  0  0
 18 41  1  0  0  0
 18 42  1  0  0  0
 18 46  1  0  0  0
 20 21  1  0  0  0
 20 22  2  0  0  0
 23 43  1  0  0  0
 23 44  1  0  0  0
 23 45  1  0  0  0
M  CHG  2  18   1  21  -1
M  END
> <s_m_entry_id>
27406

> <s_m_entry_name>
data_maestro.19

> <s_m_Source_Path>
C:\Users\olshana1\Git\GramNeg-Accumulation\Gram Negative Permeation - OmpF

> <s_m_Source_File>
data_maestro.csv

> <i_m_Source_File_Index>
19

> <s_m_job_name>
glide-dock_Nicaido_neutral

> <s_i_glide_gridfile>
3POX-grid

> <i_i_glide_lignum>
24

> <i_i_glide_rotatable_bonds>
4

> <r_i_docking_score>
-5.10334486463063

> <r_i_glide_ligand_efficiency>
-0.221884559331767

> <r_i_glide_ligand_efficiency_sa>
-0.631010170963017

> <r_i_glide_ligand_efficiency_ln>
-1.2340350628405

> <r_i_glide_gscore>
-5.30664486463063

> <r_i_glide_lipo>
0

> <r_i_glide_hbond>
-0.522742393333338

> <r_i_glide_metal>
0

> <r_i_glide_rewards>
-1.07732673563062

> <r_i_glide_evdw>
-19.6266002655029

> <r_i_glide_ecoul>
-18.3964290618896

> <r_i_glide_erotb>
0.487675558125352

> <r_i_glide_esite>
-0.453456921233432

> <r_i_glide_emodel>
-65.8144280919547

> <r_i_glide_energy>
-38.0230293273926

> <r_i_glide_einternal>
4.96890783309937

> <i_i_glide_confnum>
19

> <i_i_glide_posenum>
243

> <r_i_glide_eff_state_penalty>
0.2033

> <r_glide_res:A132_vdw>
0.114988661296856

> <r_glide_res:A132_coul>
-28.83559785341

> <r_glide_res:A132_hbond>
-0.162742393333338

> <r_glide_res:A132_dist>
1.99313808417745

> <r_glide_res:A132_Eint>
-28.8833515854464

> <r_glide_res:A117_vdw>
-2.68851988745838

> <r_glide_res:A117_coul>
-2.78582855315979

> <r_glide_res:A117_hbond>
0

> <r_glide_res:A117_dist>
3.08611729067246

> <r_glide_res:A117_Eint>
-5.47434844061818

> <r_glide_res:A113_vdw>
-3.68214995367607

> <r_glide_res:A113_coul>
-37.7159962033102

> <r_glide_res:A113_hbond>
-0.36

> <r_glide_res:A113_dist>
1.90742203865617

> <r_glide_res:A113_Eint>
-41.7581461569863

> <r_glide_res:A82_vdw>
-1.50412591292914

> <r_glide_res:A82_coul>
-25.5426147624803

> <r_glide_res:A82_hbond>
0

> <r_glide_res:A82_dist>
2.67457830089369

> <r_glide_res:A82_Eint>
-27.0467406754095

> <r_glide_res:A42_vdw>
-1.06914272205844

> <r_glide_res:A42_coul>
-15.8977709860611

> <r_glide_res:A42_hbond>
0

> <r_glide_res:A42_dist>
3.21865694713614

> <r_glide_res:A42_Eint>
-16.9669137081196

> <r_glide_res:A16_vdw>
-0.217723444757291

> <r_glide_res:A16_coul>
0.267872276394439

> <r_glide_res:A16_hbond>
0

> <r_glide_res:A16_dist>
4.12040250059046

> <r_glide_res:A16_Eint>
0.0501488316371484

> <s_m_source_file>
ligprep_Nicaido_neutral.maegz

> <i_m_source_file_index>
19

> <i_lp_mmshare_version>
58128

> <i_f3d_flags>
0

> <s_lp_Force_Field>
S-OPLS

> <r_lp_Energy>
30.580191

> <b_lp_Chiralities_Consistent>
1

> <s_lp_Variant>
Cyclacillin-1

> <s_epik_input>
W09IXUMoPU8pW0NAQEhdMUMoW0NIM10pKFtDSDNdKVNbQ0BASF0oTjEyKVtDQEhdKEMyPU8pW05IXUMoPU8pQzMoW05IMl0pW0NIMl1bQ0gyXVtDSDJdW0NIMl1bQ0gyXTM=

> <s_epik_cmdline>
J2VwaWtfcHl0aG9uJywgJy1waHQnLCAnMC4wJywgJy1waCcsICc3LjQnLCAnLW50JywgJy1tYScsICc1MDAnLCAnLWltYWUnLCAnPGluZmlsZS5tYWU+JywgJy1vbWFlJywgJzxvdXRmaWxlLm1hZT4n

> <r_epik_Ionization_Penalty>
  0.2033

> <r_epik_Ionization_Penalty_Charging>
  0.2033

> <r_epik_Ionization_Penalty_Neutral>
  0.0000

> <r_epik_State_Penalty>
  0.2033

> <r_epik_Charging_Adjusted_Penalty>
0.406545099244061

> <i_epik_Tot_Q>
0

> <i_epik_Tot_abs_Q>
2

> <s_epik_Chemistry_Notes>
This compound contains an acetal/aminal-like group ( X-CH(R)-Y where X, Y are N, S, or O) that may be acid/base labile, releasing an aldehyde.

> <s_m_subgroup_title>
glide-dock_Nicaido_neutral_pv1

> <s_m_subgroupid>
glide-dock_Nicaido_neutral_pv1

> <b_m_subgroup_collapsed>
0

$$$$
Ofloxacin
                    3D
 Schrodinger Suite 2022-2.
 46 49  0  0  1  0            999 V2000
  -22.3591  -22.1713  -22.4522 C   0  0  0  0  0  0
  -22.2884  -21.6140  -21.0197 C   0  0  1  0  0  0
  -23.0444  -20.2865  -20.8672 C   0  0  0  0  0  0
  -24.4276  -20.5006  -21.0982 O   0  0  0  0  0  0
  -24.9573  -21.5731  -20.4180 C   0  0  0  0  0  0
  -24.1745  -22.6051  -19.8386 C   0  0  0  0  0  0
  -22.7558  -22.5930  -20.0361 N   0  0  0  0  0  0
  -21.9032  -23.5104  -19.4204 C   0  0  0  0  0  0
  -22.2952  -24.5362  -18.6314 C   0  0  0  0  0  0
  -23.7578  -24.6643  -18.3988 C   0  0  0  0  0  0
  -24.6456  -23.6807  -19.0599 C   0  0  0  0  0  0
  -26.0478  -23.7627  -18.9389 C   0  0  0  0  0  0
  -26.8937  -22.8151  -19.5347 C   0  0  0  0  0  0
  -28.2317  -22.9802  -19.4047 F   0  0  0  0  0  0
  -26.3585  -21.7078  -20.2413 C   0  0  0  0  0  0
  -27.2016  -20.6878  -20.7132 N   0  0  0  0  0  0
  -28.1363  -21.0623  -21.7682 C   0  0  0  0  0  0
  -28.9121  -19.8306  -22.2736 C   0  0  0  0  0  0
  -29.5689  -19.1135  -21.1532 N   0  3  0  0  0  0
  -28.6091  -18.7496  -20.0862 C   0  0  0  0  0  0
  -27.8122  -19.9639  -19.6025 C   0  0  0  0  0  0
  -30.3799  -17.9579  -21.5962 C   0  0  0  0  0  0
  -24.2535  -25.5495  -17.7124 O   0  0  0  0  0  0
  -21.2490  -25.4991  -17.9449 C   0  0  0  0  0  0
  -21.5433  -25.9494  -16.8133 O   0  5  0  0  0  0
  -20.2068  -25.7597  -18.5892 O   0  0  0  0  0  0
  -21.9709  -21.4482  -23.1702 H   0  0  0  0  0  0
  -21.7645  -23.0800  -22.5450 H   0  0  0  0  0  0
  -23.3822  -22.4097  -22.7432 H   0  0  0  0  0  0
  -21.2396  -21.4073  -20.8012 H   0  0  0  0  0  0
  -22.9009  -19.8700  -19.8687 H   0  0  0  0  0  0
  -22.6747  -19.5460  -21.5770 H   0  0  0  0  0  0
  -20.8556  -23.3337  -19.6202 H   0  0  0  0  0  0
  -26.4967  -24.5596  -18.3624 H   0  0  0  0  0  0
  -27.5895  -21.5211  -22.5926 H   0  0  0  0  0  0
  -28.8420  -21.8056  -21.3965 H   0  0  0  0  0  0
  -29.6609  -20.1386  -23.0038 H   0  0  0  0  0  0
  -28.2288  -19.1495  -22.7839 H   0  0  0  0  0  0
  -29.1684  -18.3496  -19.2401 H   0  0  0  0  0  0
  -27.9235  -17.9802  -20.4444 H   0  0  0  0  0  0
  -28.4773  -20.6198  -19.0394 H   0  0  0  0  0  0
  -27.0335  -19.6367  -18.9115 H   0  0  0  0  0  0
  -29.7550  -17.1757  -22.0287 H   0  0  0  0  0  0
  -31.1169  -18.2588  -22.3409 H   0  0  0  0  0  0
  -30.9219  -17.5292  -20.7524 H   0  0  0  0  0  0
  -30.2050  -19.7521  -20.6857 H   0  0  0  0  0  0
  1  2  1  0  0  0
  1 27  1  0  0  0
  1 28  1  0  0  0
  1 29  1  0  0  0
  2  7  1  0  0  0
  2  3  1  0  0  0
  2 30  1  0  0  0
  3  4  1  0  0  0
  3 31  1  0  0  0
  3 32  1  0  0  0
  4  5  1  0  0  0
  5 15  1  0  0  0
  5  6  2  0  0  0
  6 11  1  0  0  0
  6  7  1  0  0  0
  7  8  1  0  0  0
  8  9  2  0  0  0
  8 33  1  0  0  0
  9 10  1  0  0  0
  9 24  1  0  0  0
 10 11  1  0  0  0
 10 23  2  0  0  0
 11 12  2  0  0  0
 12 13  1  0  0  0
 12 34  1  0  0  0
 13 14  1  0  0  0
 13 15  2  0  0  0
 15 16  1  0  0  0
 16 21  1  0  0  0
 16 17  1  0  0  0
 17 18  1  0  0  0
 17 35  1  0  0  0
 17 36  1  0  0  0
 18 19  1  0  0  0
 18 37  1  0  0  0
 18 38  1  0  0  0
 19 20  1  0  0  0
 19 22  1  0  0  0
 19 46  1  0  0  0
 20 21  1  0  0  0
 20 39  1  0  0  0
 20 40  1  0  0  0
 21 41  1  0  0  0
 21 42  1  0  0  0
 22 43  1  0  0  0
 22 44  1  0  0  0
 22 45  1  0  0  0
 24 25  1  0  0  0
 24 26  2  0  0  0
M  CHG  2  19   1  25  -1
M  END
> <s_m_entry_id>
27407

> <s_m_entry_name>
data_maestro.32

> <s_m_Source_Path>
C:\Users\olshana1\Git\GramNeg-Accumulation\Gram Negative Permeation - OmpF

> <s_m_Source_File>
data_maestro.csv

> <i_m_Source_File_Index>
32

> <s_m_job_name>
glide-dock_Nicaido_neutral

> <s_i_glide_gridfile>
3POX-grid

> <i_i_glide_lignum>
41

> <i_i_glide_rotatable_bonds>
2

> <r_i_docking_score>
-5.10215811990035

> <r_i_glide_ligand_efficiency>
-0.196236850765398

> <r_i_glide_ligand_efficiency_sa>
-0.58135089823777

> <r_i_glide_ligand_efficiency_ln>
-1.1982250929123

> <r_i_glide_gscore>
-5.10215811990035

> <r_i_glide_lipo>
0

> <r_i_glide_hbond>
-0.655843047535027

> <r_i_glide_metal>
0

> <r_i_glide_rewards>
-0.945221570454544

> <r_i_glide_evdw>
-17.718147277832

> <r_i_glide_ecoul>
-16.3174343109131

> <r_i_glide_erotb>
0.146950134654495

> <r_i_glide_esite>
-0.314521126036713

> <r_i_glide_emodel>
-58.3735635077527

> <r_i_glide_energy>
-34.0355815887451

> <r_i_glide_einternal>
0.0393291600048542

> <i_i_glide_confnum>
5

> <i_i_glide_posenum>
339

> <r_i_glide_eff_state_penalty>
0

> <r_glide_res:A132_vdw>
-2.09095376181371

> <r_glide_res:A132_coul>
-2.73676737529471

> <r_glide_res:A132_hbond>
0

> <r_glide_res:A132_dist>
2.78156863093063

> <r_glide_res:A132_Eint>
-4.82772113710842

> <r_glide_res:A117_vdw>
-2.61445853079737

> <r_glide_res:A117_coul>
-13.1508966180278

> <r_glide_res:A117_hbond>
0

> <r_glide_res:A117_dist>
2.53554263242695

> <r_glide_res:A117_Eint>
-15.7653551488252

> <r_glide_res:A113_vdw>
-1.50177264038757

> <r_glide_res:A113_coul>
-29.7733707515752

> <r_glide_res:A113_hbond>
-0.114710798820627

> <r_glide_res:A113_dist>
2.14398841346046

> <r_glide_res:A113_Eint>
-31.3898541907834

> <r_glide_res:A82_vdw>
-0.465407350453372

> <r_glide_res:A82_coul>
3.4350653422582

> <r_glide_res:A82_hbond>
0

> <r_glide_res:A82_dist>
3.90616293561458

> <r_glide_res:A82_Eint>
2.96965799180483

> <r_glide_res:A42_vdw>
-0.235778854954256

> <r_glide_res:A42_coul>
5.88759674090552

> <r_glide_res:A42_hbond>
0

> <r_glide_res:A42_dist>
3.92833277903018

> <r_glide_res:A42_Eint>
5.65181788595127

> <r_glide_res:A16_vdw>
-0.0576917968479057

> <r_glide_res:A16_coul>
9.5289650589579

> <r_glide_res:A16_hbond>
0

> <r_glide_res:A16_dist>
5.25495171527364

> <r_glide_res:A16_Eint>
9.47127326210999

> <s_m_source_file>
ligprep_Nicaido_neutral.maegz

> <i_m_source_file_index>
32

> <i_lp_mmshare_version>
58128

> <i_f3d_flags>
0

> <s_lp_Force_Field>
S-OPLS

> <r_lp_Energy>
60.370079

> <b_lp_Chiralities_Consistent>
1

> <s_lp_Variant>
Ofloxacin-1

> <s_epik_input>
TzFbQ0gyXVtDQEhdKFtDSDNdKW4oYzJjMTMpW2NIXWMoQyg9TylbT0hdKWMoPU8pYzJbY0hdYyhGKWMzTjRbQ0gyXVtDSDJdTihbQ0gzXSlbQ0gyXVtDSDJdNA==

> <s_epik_cmdline>
J2VwaWtfcHl0aG9uJywgJy1waHQnLCAnMC4wJywgJy1waCcsICc3LjQnLCAnLW50JywgJy1tYScsICc1MDAnLCAnLWltYWUnLCAnPGluZmlsZS5tYWU+JywgJy1vbWFlJywgJzxvdXRmaWxlLm1hZT4n

> <r_lp_tautomer_probability>
1

> <r_epik_Ionization_Penalty>
  0.1907

> <r_epik_Ionization_Penalty_Charging>
  0.1907

> <r_epik_Ionization_Penalty_Neutral>
  0.0000

> <r_epik_State_Penalty>
  0.0000

> <r_epik_Charging_Adjusted_Penalty>
0.190712686691679

> <i_epik_Tot_Q>
0

> <i_epik_Tot_abs_Q>
2

> <s_m_subgroup_title>
glide-dock_Nicaido_neutral_pv1

> <s_m_subgroupid>
glide-dock_Nicaido_neutral_pv1

> <b_m_subgroup_collapsed>
0

$$$$
Ceftizoxime
                    3D
 Schrodinger Suite 2022-2.
 37 39  0  0  1  0            999 V2000
  -24.4462  -22.3830  -15.9243 C   0  0  0  0  0  0
  -24.7702  -21.8477  -17.1948 O   0  0  0  0  0  0
  -25.8603  -22.5716  -17.6983 N   0  0  0  0  0  0
  -26.3584  -22.0837  -18.7664 C   0  0  0  0  0  0
  -25.8948  -20.8490  -19.4788 C   0  0  0  0  0  0
  -25.5691  -19.6823  -18.8242 C   0  0  0  0  0  0
  -25.1099  -18.4070  -19.9214 S   0  0  0  0  0  0
  -25.3619  -19.5226  -21.2521 C   0  0  0  0  0  0
  -25.1700  -19.1510  -22.5684 N   0  0  0  0  0  0
  -25.7417  -20.7405  -20.8702 N   0  0  0  0  0  0
  -27.5106  -22.8040  -19.4398 C   0  0  0  0  0  0
  -28.4271  -21.9878  -19.9877 N   0  0  0  0  0  0
  -29.5724  -22.4227  -20.7863 C   0  0  1  0  0  0
  -30.1998  -21.2490  -21.5626 C   0  0  1  0  0  0
  -29.8452  -21.9409  -22.7904 N   0  0  0  0  0  0
  -29.1746  -22.9872  -22.1761 C   0  0  0  0  0  0
  -28.5622  -23.9475  -22.6008 O   0  0  0  0  0  0
  -30.1717  -21.4170  -24.0575 C   0  0  0  0  0  0
  -29.3798  -21.9224  -25.3083 C   0  0  0  0  0  0
  -29.9687  -21.8750  -26.4131 O   0  5  0  0  0  0
  -28.2180  -22.3496  -25.1320 O   0  0  0  0  0  0
  -31.1238  -20.4674  -24.2055 C   0  0  0  0  0  0
  -31.9845  -19.8879  -23.0942 C   0  0  0  0  0  0
  -31.9937  -20.9328  -21.6149 S   0  0  0  0  0  0
  -27.5689  -24.0358  -19.4973 O   0  0  0  0  0  0
  -23.6229  -21.8210  -15.4844 H   0  0  0  0  0  0
  -25.2899  -22.3339  -15.2350 H   0  0  0  0  0  0
  -24.1361  -23.4225  -16.0137 H   0  0  0  0  0  0
  -25.6049  -19.4852  -17.7616 H   0  0  0  0  0  0
  -25.5739  -19.7426  -23.2786 H   0  0  0  0  0  0
  -25.2435  -18.1662  -22.7936 H   0  0  0  0  0  0
  -28.3338  -20.9910  -19.8447 H   0  0  0  0  0  0
  -30.3082  -23.0095  -20.2355 H   0  0  0  0  0  0
  -29.6440  -20.3131  -21.4666 H   0  0  0  0  0  0
  -31.3143  -20.0574  -25.1867 H   0  0  0  0  0  0
  -31.6148  -18.8944  -22.8382 H   0  0  0  0  0  0
  -33.0098  -19.7761  -23.4465 H   0  0  0  0  0  0
  1  2  1  0  0  0
  1 26  1  0  0  0
  1 27  1  0  0  0
  1 28  1  0  0  0
  2  3  1  0  0  0
  3  4  2  3  0  0
  4  5  1  0  0  0
  4 11  1  0  0  0
  5 10  1  0  0  0
  5  6  2  0  0  0
  6  7  1  0  0  0
  6 29  1  0  0  0
  7  8  1  0  0  0
  8  9  1  0  0  0
  8 10  2  0  0  0
  9 30  1  0  0  0
  9 31  1  0  0  0
 11 12  1  0  0  0
 11 25  2  0  0  0
 12 13  1  0  0  0
 12 32  1  0  0  0
 13 16  1  0  0  0
 13 14  1  0  0  0
 13 33  1  0  0  0
 14 24  1  0  0  0
 14 15  1  0  0  0
 14 34  1  0  0  0
 15 16  1  0  0  0
 15 18  1  0  0  0
 16 17  2  0  0  0
 18 19  1  0  0  0
 18 22  2  0  0  0
 19 20  1  0  0  0
 19 21  2  0  0  0
 22 23  1  0  0  0
 22 35  1  0  0  0
 23 24  1  0  0  0
 23 36  1  0  0  0
 23 37  1  0  0  0
M  CHG  1  20  -1
M  END
> <s_m_entry_id>
27408

> <s_m_entry_name>
data_maestro.5

> <s_m_Source_Path>
C:\Users\olshana1\Git\GramNeg-Accumulation\Gram Negative Permeation - OmpF

> <s_m_Source_File>
data_maestro.csv

> <i_m_Source_File_Index>
5

> <s_m_job_name>
glide-dock_Nicaido_neutral

> <s_i_glide_gridfile>
3POX-grid

> <i_i_glide_lignum>
5

> <i_i_glide_rotatable_bonds>
6

> <r_i_docking_score>
-5.10113903840284

> <r_i_glide_ligand_efficiency>
-0.204045561536114

> <r_i_glide_ligand_efficiency_sa>
-0.596632840695039

> <r_i_glide_ligand_efficiency_ln>
-1.2091228209027

> <r_i_glide_gscore>
-5.10113903840284

> <r_i_glide_lipo>
0

> <r_i_glide_hbond>
-1.09986914672385

> <r_i_glide_metal>
0

> <r_i_glide_rewards>
-0.800576032288955

> <r_i_glide_evdw>
-27.0633678436279

> <r_i_glide_ecoul>
-12.3558959960938

> <r_i_glide_erotb>
0.664075194683877

> <r_i_glide_esite>
-0.658216262478455

> <r_i_glide_emodel>
-61.1664555945414

> <r_i_glide_energy>
-39.4192638397217

> <r_i_glide_einternal>
5.70659351348877

> <i_i_glide_confnum>
93

> <i_i_glide_posenum>
161

> <r_i_glide_eff_state_penalty>
0

> <r_glide_res:A132_vdw>
-1.85650430064656

> <r_glide_res:A132_coul>
-33.6715362360387

> <r_glide_res:A132_hbond>
-0.16

> <r_glide_res:A132_dist>
2.05014478465686

> <r_glide_res:A132_Eint>
-35.6880405366852

> <r_glide_res:A117_vdw>
-2.58318993411118

> <r_glide_res:A117_coul>
21.3021596659151

> <r_glide_res:A117_hbond>
-0.00895268576999653

> <r_glide_res:A117_dist>
2.47882733448042

> <r_glide_res:A117_Eint>
18.7100170460339

> <r_glide_res:A113_vdw>
-4.11832752848584

> <r_glide_res:A113_coul>
15.236027325859

> <r_glide_res:A113_hbond>
0

> <r_glide_res:A113_dist>
2.50270594040365

> <r_glide_res:A113_Eint>
11.1176997973732

> <r_glide_res:A82_vdw>
-1.56778204233042

> <r_glide_res:A82_coul>
-41.5840047162483

> <r_glide_res:A82_hbond>
-0.2427521471051

> <r_glide_res:A82_dist>
2.16771604802857

> <r_glide_res:A82_Eint>
-43.3945389056838

> <r_glide_res:A42_vdw>
1.52875420819625

> <r_glide_res:A42_coul>
-53.4725054874332

> <r_glide_res:A42_hbond>
-0.488164313848753

> <r_glide_res:A42_dist>
1.83166090386678

> <r_glide_res:A42_Eint>
-52.4319155930857

> <r_glide_res:A16_vdw>
-0.0242211269550013

> <r_glide_res:A16_coul>
-45.5251099726286

> <r_glide_res:A16_hbond>
-0.2

> <r_glide_res:A16_dist>
1.87802444904677

> <r_glide_res:A16_Eint>
-45.7493310995836

> <s_m_source_file>
ligprep_Nicaido_neutral.maegz

> <i_m_source_file_index>
5

> <i_lp_mmshare_version>
58128

> <i_f3d_flags>
0

> <s_lp_Force_Field>
S-OPLS

> <r_lp_Energy>
52.616387

> <b_lp_Chiralities_Consistent>
1

> <s_lp_Variant>
Ceftizoxime-1

> <s_epik_input>
W05IMl1jKG4xKXNbY0hdYzEvQyg9TlxPW0NIM10pQyg9TylbTkhdW0NAQEhdMkMoPU8pTihbQ0BIXTIzKUMoQyg9TylbT0hdKT1bQ0hdW0NIMl1TMw==

> <s_epik_cmdline>
J2VwaWtfcHl0aG9uJywgJy1waHQnLCAnMC4wJywgJy1waCcsICc3LjQnLCAnLW50JywgJy1tYScsICc1MDAnLCAnLWltYWUnLCAnPGluZmlsZS5tYWU+JywgJy1vbWFlJywgJzxvdXRmaWxlLm1hZT4n

> <r_lp_tautomer_probability>
1

> <r_epik_Ionization_Penalty>
  0.0005

> <r_epik_Ionization_Penalty_Charging>
  0.0000

> <r_epik_Ionization_Penalty_Neutral>
  0.0005

> <r_epik_State_Penalty>
  0.0000

> <r_epik_Charging_Adjusted_Penalty>
4.86746471452517e-05

> <i_epik_Tot_Q>
-1

> <i_epik_Tot_abs_Q>
1

> <s_epik_Chemistry_Notes>
This compound has an imine and may undergo hydrolysis. This compound contains an acetal/aminal-like group ( X-CH(R)-Y where X, Y are N, S, or O) that may be acid/base labile, releasing an aldehyde.

> <s_m_subgroup_title>
glide-dock_Nicaido_neutral_pv1

> <s_m_subgroupid>
glide-dock_Nicaido_neutral_pv1

> <b_m_subgroup_collapsed>
0

$$$$
SCE-796
                    3D
 Schrodinger Suite 2022-2.
 54 57  0  0  1  0            999 V2000
  -27.5657  -24.3494  -21.8135 O   0  0  0  0  0  0
  -27.8360  -23.3364  -21.2051 C   0  0  0  0  0  0
  -27.9460  -22.8708  -19.7264 C   0  0  2  0  0  0
  -28.0933  -21.4564  -20.3105 C   0  0  2  0  0  0
  -28.0705  -22.0535  -21.6373 N   0  0  0  0  0  0
  -28.1021  -21.3075  -22.8290 C   0  0  0  0  0  0
  -28.5200  -22.0614  -24.1595 C   0  0  0  0  0  0
  -29.3316  -21.4834  -24.9156 O   0  5  0  0  0  0
  -27.9622  -23.1493  -24.4109 O   0  0  0  0  0  0
  -27.6944  -20.0126  -22.8413 C   0  0  0  0  0  0
  -27.1789  -19.2557  -21.6116 C   0  0  0  0  0  0
  -26.7362  -20.2615  -20.1933 S   0  0  0  0  0  0
  -27.6684  -19.1641  -24.1093 C   0  0  0  0  0  0
  -29.0048  -18.6185  -24.4692 N   0  3  0  0  0  0
  -29.9725  -18.4124  -23.5333 C   0  0  0  0  0  0
  -31.2488  -17.9505  -23.9015 C   0  0  0  0  0  0
  -31.5210  -17.6614  -25.2558 C   0  0  0  0  0  0
  -30.5001  -17.8802  -26.2070 C   0  0  0  0  0  0
  -29.2416  -18.3499  -25.7783 C   0  0  0  0  0  0
  -32.8639  -17.1474  -25.6840 C   0  0  0  0  0  0
  -33.4919  -16.3545  -24.8133 N   0  0  0  0  0  0
  -33.3222  -17.4059  -26.7946 O   0  0  0  0  0  0
  -26.6991  -22.9698  -18.9694 N   0  0  0  0  0  0
  -26.1556  -24.0687  -18.4317 C   0  0  0  0  0  0
  -24.7344  -23.9510  -17.8214 C   0  0  2  0  0  0
  -24.1428  -22.5356  -17.7558 C   0  0  0  0  0  0
  -23.8451  -21.7886  -18.9232 C   0  0  0  0  0  0
  -23.2695  -20.5076  -18.8294 C   0  0  0  0  0  0
  -22.9665  -19.9640  -17.5686 C   0  0  0  0  0  0
  -23.2431  -20.7052  -16.4050 C   0  0  0  0  0  0
  -23.8407  -21.9768  -16.4944 C   0  0  0  0  0  0
  -23.7794  -24.8400  -18.6389 C   0  0  0  0  0  0
  -23.8360  -24.8106  -19.8923 O   0  5  0  0  0  0
  -22.9877  -25.5495  -17.9753 O   0  0  0  0  0  0
  -26.7450  -25.1521  -18.4363 O   0  0  0  0  0  0
  -28.8356  -23.1962  -19.1841 H   0  0  0  0  0  0
  -29.0578  -20.9949  -20.0852 H   0  0  0  0  0  0
  -26.2597  -18.7414  -21.8800 H   0  0  0  0  0  0
  -27.9104  -18.5236  -21.2673 H   0  0  0  0  0  0
  -26.9594  -18.3496  -24.0201 H   0  0  0  0  0  0
  -27.3124  -19.7590  -24.9501 H   0  0  0  0  0  0
  -29.7376  -18.6237  -22.5036 H   0  0  0  0  0  0
  -31.9953  -17.8065  -23.1331 H   0  0  0  0  0  0
  -30.6663  -17.6488  -27.2495 H   0  0  0  0  0  0
  -28.4152  -18.5075  -26.4548 H   0  0  0  0  0  0
  -33.0481  -16.1228  -23.9316 H   0  0  0  0  0  0
  -34.3898  -15.9627  -25.0528 H   0  0  0  0  0  0
  -26.1609  -22.1153  -18.9038 H   0  0  0  0  0  0
  -24.7687  -24.3578  -16.8114 H   0  0  0  0  0  0
  -24.0607  -22.1932  -19.9016 H   0  0  0  0  0  0
  -23.0605  -19.9440  -19.7270 H   0  0  0  0  0  0
  -22.5228  -18.9818  -17.4923 H   0  0  0  0  0  0
  -23.0112  -20.2914  -15.4347 H   0  0  0  0  0  0
  -24.0547  -22.5230  -15.5862 H   0  0  0  0  0  0
  1  2  2  0  0  0
  2  5  1  0  0  0
  2  3  1  0  0  0
  3  4  1  0  0  0
  3 23  1  0  0  0
  3 36  1  0  0  0
  4 12  1  0  0  0
  4  5  1  0  0  0
  4 37  1  0  0  0
  5  6  1  0  0  0
  6  7  1  0  0  0
  6 10  2  0  0  0
  7  8  1  0  0  0
  7  9  2  0  0  0
 10 11  1  0  0  0
 10 13  1  0  0  0
 11 12  1  0  0  0
 11 38  1  0  0  0
 11 39  1  0  0  0
 13 14  1  0  0  0
 13 40  1  0  0  0
 13 41  1  0  0  0
 14 19  1  0  0  0
 14 15  2  0  0  0
 15 16  1  0  0  0
 15 42  1  0  0  0
 16 17  2  0  0  0
 16 43  1  0  0  0
 17 18  1  0  0  0
 17 20  1  0  0  0
 18 19  2  0  0  0
 18 44  1  0  0  0
 19 45  1  0  0  0
 20 21  1  0  0  0
 20 22  2  0  0  0
 21 46  1  0  0  0
 21 47  1  0  0  0
 23 24  1  0  0  0
 23 48  1  0  0  0
 24 25  1  0  0  0
 24 35  2  0  0  0
 25 26  1  0  0  0
 25 32  1  0  0  0
 25 49  1  0  0  0
 26 31  1  0  0  0
 26 27  2  0  0  0
 27 28  1  0  0  0
 27 50  1  0  0  0
 28 29  2  0  0  0
 28 51  1  0  0  0
 29 30  1  0  0  0
 29 52  1  0  0  0
 30 31  2  0  0  0
 30 53  1  0  0  0
 31 54  1  0  0  0
 32 33  1  0  0  0
 32 34  2  0  0  0
M  CHG  3   8  -1  14   1  33  -1
M  END
> <s_m_entry_id>
27409

> <s_m_entry_name>
data_maestro.28

> <s_m_Source_Path>
C:\Users\olshana1\Git\GramNeg-Accumulation\Gram Negative Permeation - OmpF

> <s_m_Source_File>
data_maestro.csv

> <i_m_Source_File_Index>
28

> <s_m_job_name>
glide-dock_Nicaido_neutral

> <s_i_glide_gridfile>
3POX-grid

> <i_i_glide_lignum>
35

> <i_i_glide_rotatable_bonds>
9

> <r_i_docking_score>
-5.09831835807946

> <r_i_glide_ligand_efficiency>
-0.14566623880227

> <r_i_glide_ligand_efficiency_sa>
-0.476483925713304

> <r_i_glide_ligand_efficiency_ln>
-1.11919403067798

> <r_i_glide_gscore>
-5.09831835807946

> <r_i_glide_lipo>
-0.0279706986495219

> <r_i_glide_hbond>
-0.886118813236741

> <r_i_glide_metal>
0

> <r_i_glide_rewards>
-0.0301644408241281

> <r_i_glide_evdw>
-32.1319198608398

> <r_i_glide_ecoul>
-15.6315774917603

> <r_i_glide_erotb>
0.415177540389138

> <r_i_glide_esite>
-0.617909328952181

> <r_i_glide_emodel>
-78.2887117749109

> <r_i_glide_energy>
-47.7634973526001

> <r_i_glide_einternal>
7.94594097137451

> <i_i_glide_confnum>
28

> <i_i_glide_posenum>
335

> <r_i_glide_eff_state_penalty>
0

> <r_glide_res:A132_vdw>
0.213583327285604

> <r_glide_res:A132_coul>
-51.8671445234338

> <r_glide_res:A132_hbond>
-0.0984250983315197

> <r_glide_res:A132_dist>
1.99801258455465

> <r_glide_res:A132_Eint>
-51.7519862944797

> <r_glide_res:A117_vdw>
-2.3237921498305

> <r_glide_res:A117_coul>
-3.24286077133054

> <r_glide_res:A117_hbond>
0

> <r_glide_res:A117_dist>
2.18619499846781

> <r_glide_res:A117_Eint>
-5.56665292116104

> <r_glide_res:A113_vdw>
-2.71939378622617

> <r_glide_res:A113_coul>
9.91592968925877

> <r_glide_res:A113_hbond>
0

> <r_glide_res:A113_dist>
2.57527036162941

> <r_glide_res:A113_Eint>
7.19653590303261

> <r_glide_res:A82_vdw>
-1.57567300618994

> <r_glide_res:A82_coul>
-46.8052708412652

> <r_glide_res:A82_hbond>
-0.182401529548055

> <r_glide_res:A82_dist>
2.08079126859294

> <r_glide_res:A82_Eint>
-48.5633453770032

> <r_glide_res:A42_vdw>
-0.902322375554891

> <r_glide_res:A42_coul>
-40.0615036577444

> <r_glide_res:A42_hbond>
-0.157247411401396

> <r_glide_res:A42_dist>
2.0726353971773

> <r_glide_res:A42_Eint>
-41.1210734447007

> <r_glide_res:A16_vdw>
-0.92000763074652

> <r_glide_res:A16_coul>
-18.3874009093774

> <r_glide_res:A16_hbond>
0

> <r_glide_res:A16_dist>
3.24992140369834

> <r_glide_res:A16_Eint>
-19.3074085401239

> <s_m_source_file>
ligprep_Nicaido_neutral.maegz

> <i_m_source_file_index>
28

> <i_lp_mmshare_version>
58128

> <i_f3d_flags>
0

> <s_lp_Force_Field>
S-OPLS

> <r_lp_Energy>
64.89814

> <b_lp_Chiralities_Consistent>
1

> <s_lp_Variant>
SCE-796-1

> <s_epik_input>
W2NIXTFbY0hdW2NIXVtjSF1bY0hdYzFbQ0BIXShDKD1PKVtPSF0pQyg9TylbTkhdW0NAQEhdMkMoPU8pTihbQ0BASF0yMylDKEMoPU8pW09IXSk9QyhbQ0gyXVMzKVtDSDJdW24rXTRbY0hdW2NIXWMoW2NIXVtjSF00KUMoPU8pW05IMl0=

> <s_epik_cmdline>
J2VwaWtfcHl0aG9uJywgJy1waHQnLCAnMC4wJywgJy1waCcsICc3LjQnLCAnLW50JywgJy1tYScsICc1MDAnLCAnLWltYWUnLCAnPGluZmlsZS5tYWU+JywgJy1vbWFlJywgJzxvdXRmaWxlLm1hZT4n

> <r_lp_tautomer_probability>
1

> <r_epik_Ionization_Penalty>
  0.0010

> <r_epik_Ionization_Penalty_Charging>
  0.0001

> <r_epik_Ionization_Penalty_Neutral>
  0.0010

> <r_epik_State_Penalty>
  0.0000

> <r_epik_Charging_Adjusted_Penalty>
5.79311335039239e-05

> <i_epik_Tot_Q>
-1

> <i_epik_Tot_abs_Q>
3

> <s_epik_Chemistry_Notes>
This compound contains an acetal/aminal-like group ( X-CH(R)-Y where X, Y are N, S, or O) that may be acid/base labile, releasing an aldehyde.

> <s_m_subgroup_title>
glide-dock_Nicaido_neutral_pv1

> <s_m_subgroupid>
glide-dock_Nicaido_neutral_pv1

> <b_m_subgroup_collapsed>
0

$$$$
Penicillin N
                    3D
 Schrodinger Suite 2022-2.
 44 45  0  0  1  0            999 V2000
  -22.0728  -20.4663  -21.9871 C   0  0  0  0  0  0
  -21.3310  -20.8343  -23.2855 C   0  0  0  0  0  0
  -19.8254  -20.5631  -23.0882 C   0  0  0  0  0  0
  -21.6942  -22.3110  -23.6870 C   0  0  2  0  0  0
  -20.5903  -23.2496  -24.2028 C   0  0  0  0  0  0
  -19.9337  -22.9179  -25.2130 O   0  5  0  0  0  0
  -20.4789  -24.3495  -23.6132 O   0  0  0  0  0  0
  -22.6784  -22.1549  -24.7262 N   0  0  0  0  0  0
  -22.7659  -21.0294  -25.6339 C   0  0  1  0  0  0
  -24.2694  -21.3318  -25.7682 C   0  0  2  0  0  0
  -25.1238  -20.3385  -25.1141 N   0  0  0  0  0  0
  -26.4226  -20.5405  -24.8432 C   0  0  0  0  0  0
  -27.1430  -19.4803  -24.0062 C   0  0  0  0  0  0
  -28.2902  -20.0710  -23.1545 C   0  0  0  0  0  0
  -27.8126  -20.9332  -21.9652 C   0  0  0  0  0  0
  -28.8869  -21.9267  -21.4440 C   0  0  2  0  0  0
  -29.1689  -21.7018  -20.0134 N   0  3  0  0  0  0
  -28.4423  -23.3901  -21.6660 C   0  0  0  0  0  0
  -28.7698  -23.9494  -22.7370 O   0  5  0  0  0  0
  -27.7658  -23.9494  -20.7715 O   0  0  0  0  0  0
  -27.0289  -21.5495  -25.2133 O   0  0  0  0  0  0
  -23.9691  -22.5628  -24.8873 C   0  0  0  0  0  0
  -24.5880  -23.4927  -24.4135 O   0  0  0  0  0  0
  -21.9790  -19.7419  -24.6177 S   0  0  0  0  0  0
  -21.7380  -21.0795  -21.1503 H   0  0  0  0  0  0
  -21.9078  -19.4222  -21.7181 H   0  0  0  0  0  0
  -23.1491  -20.6078  -22.0935 H   0  0  0  0  0  0
  -19.3954  -21.2285  -22.3392 H   0  0  0  0  0  0
  -19.2648  -20.6913  -24.0143 H   0  0  0  0  0  0
  -19.6525  -19.5387  -22.7565 H   0  0  0  0  0  0
  -22.1672  -22.8136  -22.8411 H   0  0  0  0  0  0
  -22.2079  -21.1939  -26.5581 H   0  0  0  0  0  0
  -24.5541  -21.5483  -26.7985 H   0  0  0  0  0  0
  -24.6940  -19.4681  -24.8214 H   0  0  0  0  0  0
  -27.5398  -18.7275  -24.6885 H   0  0  0  0  0  0
  -26.4261  -18.9650  -23.3648 H   0  0  0  0  0  0
  -28.9523  -20.6522  -23.7977 H   0  0  0  0  0  0
  -28.9054  -19.2557  -22.7710 H   0  0  0  0  0  0
  -27.4794  -20.2661  -21.1684 H   0  0  0  0  0  0
  -26.9136  -21.4804  -22.2540 H   0  0  0  0  0  0
  -29.8320  -21.7687  -21.9659 H   0  0  0  0  0  0
  -29.9000  -22.3246  -19.6938 H   0  0  0  0  0  0
  -28.3322  -21.8860  -19.4800 H   0  0  0  0  0  0
  -29.4839  -20.7541  -19.8392 H   0  0  0  0  0  0
  1  2  1  0  0  0
  1 25  1  0  0  0
  1 26  1  0  0  0
  1 27  1  0  0  0
  2 24  1  0  0  0
  2  3  1  0  0  0
  2  4  1  0  0  0
  3 28  1  0  0  0
  3 29  1  0  0  0
  3 30  1  0  0  0
  4  5  1  0  0  0
  4  8  1  0  0  0
  4 31  1  0  0  0
  5  6  1  0  0  0
  5  7  2  0  0  0
  8 22  1  0  0  0
  8  9  1  0  0  0
  9 10  1  0  0  0
  9 24  1  0  0  0
  9 32  1  0  0  0
 10 11  1  0  0  0
 10 22  1  0  0  0
 10 33  1  0  0  0
 11 12  1  0  0  0
 11 34  1  0  0  0
 12 13  1  0  0  0
 12 21  2  0  0  0
 13 14  1  0  0  0
 13 35  1  0  0  0
 13 36  1  0  0  0
 14 15  1  0  0  0
 14 37  1  0  0  0
 14 38  1  0  0  0
 15 16  1  0  0  0
 15 39  1  0  0  0
 15 40  1  0  0  0
 16 17  1  0  0  0
 16 18  1  0  0  0
 16 41  1  0  0  0
 17 42  1  0  0  0
 17 43  1  0  0  0
 17 44  1  0  0  0
 18 19  1  0  0  0
 18 20  2  0  0  0
 22 23  2  0  0  0
M  CHG  3   6  -1  17   1  19  -1
M  END
> <s_m_entry_id>
27410

> <s_m_entry_name>
data_maestro.26

> <s_m_Source_Path>
C:\Users\olshana1\Git\GramNeg-Accumulation\Gram Negative Permeation - OmpF

> <s_m_Source_File>
data_maestro.csv

> <i_m_Source_File_Index>
26

> <s_m_job_name>
glide-dock_Nicaido_neutral

> <s_i_glide_gridfile>
3POX-grid

> <i_i_glide_lignum>
33

> <i_i_glide_rotatable_bonds>
8

> <r_i_docking_score>
-5.09114965731102

> <r_i_glide_ligand_efficiency>
-0.212131235721293

> <r_i_glide_ligand_efficiency_sa>
-0.611892366487419

> <r_i_glide_ligand_efficiency_ln>
-1.21854573062957

> <r_i_glide_gscore>
-5.09114965731102

> <r_i_glide_lipo>
0

> <r_i_glide_hbond>
-0.992145073936825

> <r_i_glide_metal>
0

> <r_i_glide_rewards>
-0.96512431838855

> <r_i_glide_evdw>
-15.7489948272705

> <r_i_glide_ecoul>
-18.0890159606934

> <r_i_glide_erotb>
0.894795809723686

> <r_i_glide_esite>
-0.527873939241805

> <r_i_glide_emodel>
-60.4420723151929

> <r_i_glide_energy>
-33.8380107879639

> <r_i_glide_einternal>
7.40171575546265

> <i_i_glide_confnum>
104

> <i_i_glide_posenum>
292

> <r_i_glide_eff_state_penalty>
0

> <r_glide_res:A132_vdw>
1.15262661988701

> <r_glide_res:A132_coul>
-43.0013349140384

> <r_glide_res:A132_hbond>
-0.2

> <r_glide_res:A132_dist>
1.83011426221897

> <r_glide_res:A132_Eint>
-42.0487082941514

> <r_glide_res:A117_vdw>
-3.53910453778288

> <r_glide_res:A117_coul>
12.5739671049088

> <r_glide_res:A117_hbond>
0

> <r_glide_res:A117_dist>
2.50093085629655

> <r_glide_res:A117_Eint>
9.03486256712596

> <r_glide_res:A113_vdw>
1.63987063047487

> <r_glide_res:A113_coul>
-17.8709721899143

> <r_glide_res:A113_hbond>
-0.252781356991994

> <r_glide_res:A113_dist>
2.03298770964915

> <r_glide_res:A113_Eint>
-16.4838829164314

> <r_glide_res:A82_vdw>
-0.615524514277749

> <r_glide_res:A82_coul>
-49.2557393645037

> <r_glide_res:A82_hbond>
-0.292744177642348

> <r_glide_res:A82_dist>
2.02883910094059

> <r_glide_res:A82_Eint>
-50.1640080564238

> <r_glide_res:A42_vdw>
0.25714827373228

> <r_glide_res:A42_coul>
-38.3974369677706

> <r_glide_res:A42_hbond>
-0.16

> <r_glide_res:A42_dist>
1.7440651958299

> <r_glide_res:A42_Eint>
-38.3002886940383

> <r_glide_res:A16_vdw>
-0.256495707899525

> <r_glide_res:A16_coul>
-18.5103376428117

> <r_glide_res:A16_hbond>
0

> <r_glide_res:A16_dist>
4.38737913127302

> <r_glide_res:A16_Eint>
-18.7668333507112

> <s_m_source_file>
ligprep_Nicaido_neutral.maegz

> <i_m_source_file_index>
26

> <i_lp_mmshare_version>
58128

> <i_f3d_flags>
0

> <s_lp_Force_Field>
S-OPLS

> <r_lp_Energy>
12.253328

> <b_lp_Chiralities_Consistent>
1

> <s_lp_Variant>
Penicillin N-1

> <s_epik_input>
W09IXUMoPU8pW0NASF0xQyhbQ0gzXSkoW0NIM10pU1tDQEBIXShOMTIpW0NAQEhdKEMyPU8pW05IXUMoPU8pW0NIMl1bQ0gyXVtDSDJdW0NASF0oW05IMl0pQyg9TylbT0hd

> <s_epik_cmdline>
J2VwaWtfcHl0aG9uJywgJy1waHQnLCAnMC4wJywgJy1waCcsICc3LjQnLCAnLW50JywgJy1tYScsICc1MDAnLCAnLWltYWUnLCAnPGluZmlsZS5tYWU+JywgJy1vbWFlJywgJzxvdXRmaWxlLm1hZT4n

> <r_lp_tautomer_probability>
1

> <r_epik_Ionization_Penalty>
  0.0034

> <r_epik_Ionization_Penalty_Charging>
  0.0034

> <r_epik_Ionization_Penalty_Neutral>
  0.0000

> <r_epik_State_Penalty>
  0.0000

> <r_epik_Charging_Adjusted_Penalty>
0.0034368723547391

> <i_epik_Tot_Q>
-1

> <i_epik_Tot_abs_Q>
3

> <s_epik_Chemistry_Notes>
This compound contains an acetal/aminal-like group ( X-CH(R)-Y where X, Y are N, S, or O) that may be acid/base labile, releasing an aldehyde.

> <s_m_subgroup_title>
glide-dock_Nicaido_neutral_pv1

> <s_m_subgroupid>
glide-dock_Nicaido_neutral_pv1

> <b_m_subgroup_collapsed>
0

$$$$
Ceftazidime
                    3D
 Schrodinger Suite 2022-2.
 58 61  0  0  1  0            999 V2000
  -21.7252  -24.1175  -20.2761 C   0  0  0  0  0  0
  -22.8928  -24.1124  -21.2786 C   0  0  0  0  0  0
  -22.7022  -22.9641  -22.2995 C   0  0  0  0  0  0
  -22.9435  -25.5024  -21.9751 C   0  0  0  0  0  0
  -23.1682  -26.5142  -21.2711 O   0  5  0  0  0  0
  -22.7699  -25.5495  -23.2133 O   0  0  0  0  0  0
  -24.0530  -23.8430  -20.4764 O   0  0  0  0  0  0
  -25.2350  -23.9486  -21.2350 N   0  0  0  0  0  0
  -26.0952  -23.0480  -20.9738 C   0  0  0  0  0  0
  -27.4736  -23.1484  -21.5979 C   0  0  0  0  0  0
  -28.3738  -22.2547  -21.1529 N   0  0  0  0  0  0
  -29.8107  -22.1994  -21.4486 C   0  0  1  0  0  0
  -30.2622  -20.7554  -21.7225 C   0  0  2  0  0  0
  -30.2955  -21.0969  -23.1388 N   0  0  0  0  0  0
  -30.4946  -20.1440  -24.1667 C   0  0  0  0  0  0
  -30.6589  -20.7246  -25.6344 C   0  0  0  0  0  0
  -31.4329  -20.1178  -26.4107 O   0  5  0  0  0  0
  -29.9639  -21.7153  -25.9627 O   0  0  0  0  0  0
  -30.4506  -18.8014  -23.9080 C   0  0  0  0  0  0
  -30.6538  -17.7043  -24.9574 C   0  0  0  0  0  0
  -32.0748  -17.4754  -25.3238 N   0  3  0  0  0  0
  -32.3625  -17.1497  -26.6121 C   0  0  0  0  0  0
  -33.6867  -16.8814  -27.0159 C   0  0  0  0  0  0
  -34.7196  -16.9465  -26.0616 C   0  0  0  0  0  0
  -34.4006  -17.2710  -24.7290 C   0  0  0  0  0  0
  -33.0589  -17.5327  -24.3868 C   0  0  0  0  0  0
  -30.1405  -18.2167  -22.5254 C   0  0  0  0  0  0
  -29.1700  -19.3278  -21.4974 S   0  0  0  0  0  0
  -30.2401  -22.4659  -22.9193 C   0  0  0  0  0  0
  -30.4601  -23.4369  -23.6133 O   0  0  0  0  0  0
  -27.7305  -24.0375  -22.4129 O   0  0  0  0  0  0
  -25.8636  -21.8921  -20.0732 C   0  0  0  0  0  0
  -25.7201  -22.0428  -18.7136 C   0  0  0  0  0  0
  -25.5061  -20.5098  -17.9153 S   0  0  0  0  0  0
  -25.6316  -19.7207  -19.4790 C   0  0  0  0  0  0
  -25.5687  -18.3500  -19.6128 N   0  0  0  0  0  0
  -25.8012  -20.5611  -20.4955 N   0  0  0  0  0  0
  -20.7727  -24.3051  -20.7727 H   0  0  0  0  0  0
  -21.6475  -23.1579  -19.7639 H   0  0  0  0  0  0
  -21.8604  -24.8836  -19.5117 H   0  0  0  0  0  0
  -21.7561  -23.0577  -22.8335 H   0  0  0  0  0  0
  -23.4975  -22.9421  -23.0454 H   0  0  0  0  0  0
  -22.7008  -21.9955  -21.7988 H   0  0  0  0  0  0
  -28.0465  -21.5271  -20.5296 H   0  0  0  0  0  0
  -30.4285  -22.6787  -20.6882 H   0  0  0  0  0  0
  -31.2635  -20.5472  -21.3373 H   0  0  0  0  0  0
  -30.2883  -16.7496  -24.5934 H   0  0  0  0  0  0
  -30.0849  -17.9348  -25.8589 H   0  0  0  0  0  0
  -31.5258  -17.0997  -27.2941 H   0  0  0  0  0  0
  -33.9026  -16.6242  -28.0434 H   0  0  0  0  0  0
  -35.7424  -16.7446  -26.3427 H   0  0  0  0  0  0
  -35.1718  -17.3125  -23.9724 H   0  0  0  0  0  0
  -32.7682  -17.7622  -23.3745 H   0  0  0  0  0  0
  -29.5716  -17.2928  -22.6082 H   0  0  0  0  0  0
  -31.0628  -17.9705  -22.0009 H   0  0  0  0  0  0
  -25.7321  -22.9530  -18.1322 H   0  0  0  0  0  0
  -25.9331  -17.9814  -20.4818 H   0  0  0  0  0  0
  -25.8762  -17.8411  -18.7934 H   0  0  0  0  0  0
  1  2  1  0  0  0
  1 38  1  0  0  0
  1 39  1  0  0  0
  1 40  1  0  0  0
  2  3  1  0  0  0
  2  4  1  0  0  0
  2  7  1  0  0  0
  3 41  1  0  0  0
  3 42  1  0  0  0
  3 43  1  0  0  0
  4  5  1  0  0  0
  4  6  2  0  0  0
  7  8  1  0  0  0
  8  9  2  3  0  0
  9 10  1  0  0  0
  9 32  1  0  0  0
 10 11  1  0  0  0
 10 31  2  0  0  0
 11 12  1  0  0  0
 11 44  1  0  0  0
 12 29  1  0  0  0
 12 13  1  0  0  0
 12 45  1  0  0  0
 13 28  1  0  0  0
 13 14  1  0  0  0
 13 46  1  0  0  0
 14 15  1  0  0  0
 14 29  1  0  0  0
 15 16  1  0  0  0
 15 19  2  0  0  0
 16 17  1  0  0  0
 16 18  2  0  0  0
 19 20  1  0  0  0
 19 27  1  0  0  0
 20 21  1  0  0  0
 20 47  1  0  0  0
 20 48  1  0  0  0
 21 26  1  0  0  0
 21 22  2  0  0  0
 22 23  1  0  0  0
 22 49  1  0  0  0
 23 24  2  0  0  0
 23 50  1  0  0  0
 24 25  1  0  0  0
 24 51  1  0  0  0
 25 26  2  0  0  0
 25 52  1  0  0  0
 26 53  1  0  0  0
 27 28  1  0  0  0
 27 54  1  0  0  0
 27 55  1  0  0  0
 29 30  2  0  0  0
 32 37  1  0  0  0
 32 33  2  0  0  0
 33 34  1  0  0  0
 33 56  1  0  0  0
 34 35  1  0  0  0
 35 36  1  0  0  0
 35 37  2  0  0  0
 36 57  1  0  0  0
 36 58  1  0  0  0
M  CHG  3   5  -1  17  -1  21   1
M  END
> <s_m_entry_id>
27411

> <s_m_entry_name>
data_maestro.30

> <s_m_Source_Path>
C:\Users\olshana1\Git\GramNeg-Accumulation\Gram Negative Permeation - OmpF

> <s_m_Source_File>
data_maestro.csv

> <i_m_Source_File_Index>
30

> <s_m_job_name>
glide-dock_Nicaido_neutral

> <s_i_glide_gridfile>
3POX-grid

> <i_i_glide_lignum>
38

> <i_i_glide_rotatable_bonds>
10

> <r_i_docking_score>
-5.08936257827198

> <r_i_glide_ligand_efficiency>
-0.137550339953297

> <r_i_glide_ligand_efficiency_sa>
-0.458348247942019

> <r_i_glide_ligand_efficiency_ln>
-1.10376343164031

> <r_i_glide_gscore>
-5.08936257827198

> <r_i_glide_lipo>
0

> <r_i_glide_hbond>
-0.85019443788965

> <r_i_glide_metal>
0

> <r_i_glide_rewards>
0.542377920988857

> <r_i_glide_evdw>
-31.5832920074463

> <r_i_glide_ecoul>
-19.8162136077881

> <r_i_glide_erotb>
0.556495996469625

> <r_i_glide_esite>
-0.786445416300281

> <r_i_glide_emodel>
-82.1024703633151

> <r_i_glide_energy>
-51.3995056152344

> <r_i_glide_einternal>
10.4240455627441

> <i_i_glide_confnum>
334

> <i_i_glide_posenum>
278

> <r_i_glide_eff_state_penalty>
0

> <r_glide_res:A132_vdw>
-0.290033857920408

> <r_glide_res:A132_coul>
-50.4238141767777

> <r_glide_res:A132_hbond>
-0.115994712751634

> <r_glide_res:A132_dist>
1.94152513153235

> <r_glide_res:A132_Eint>
-50.8298427474497

> <r_glide_res:A117_vdw>
-4.02711633181963

> <r_glide_res:A117_coul>
15.4253082968661

> <r_glide_res:A117_hbond>
0

> <r_glide_res:A117_dist>
2.1208519750151

> <r_glide_res:A117_Eint>
11.3981919650465

> <r_glide_res:A113_vdw>
-3.62897116897419

> <r_glide_res:A113_coul>
6.10450981594571

> <r_glide_res:A113_hbond>
0

> <r_glide_res:A113_dist>
2.75489861747719

> <r_glide_res:A113_Eint>
2.47553864697152

> <r_glide_res:A82_vdw>
-1.51866452195243

> <r_glide_res:A82_coul>
-52.3595712775898

> <r_glide_res:A82_hbond>
-0.176231667749627

> <r_glide_res:A82_dist>
1.81920307985629

> <r_glide_res:A82_Eint>
-54.0544674672919

> <r_glide_res:A42_vdw>
-1.63177895917214

> <r_glide_res:A42_coul>
-47.2910068689699

> <r_glide_res:A42_hbond>
-0.0906458625513773

> <r_glide_res:A42_dist>
2.31288093599312

> <r_glide_res:A42_Eint>
-49.0134316906934

> <r_glide_res:A16_vdw>
0.00711105726948372

> <r_glide_res:A16_coul>
-38.8803325616325

> <r_glide_res:A16_hbond>
-0.144281706208643

> <r_glide_res:A16_dist>
2.25108695191815

> <r_glide_res:A16_Eint>
-39.0175032105717

> <s_m_source_file>
ligprep_Nicaido_neutral.maegz

> <i_m_source_file_index>
30

> <i_lp_mmshare_version>
58128

> <i_f3d_flags>
0

> <s_lp_Force_Field>
S-OPLS

> <r_lp_Energy>
86.633473

> <b_lp_Chiralities_Consistent>
1

> <s_lp_Variant>
Ceftazidime-1

> <s_epik_input>
W09IXUMoPU8pQyhbQ0gzXSkoW0NIM10pTy9OPUMoYzFbY0hdc2MobjEpW05IMl0pL0MoPU8pW05IXVtDQEBIXTJDKD1PKU4oW0NAQEhdMjMpQyhDKD1PKVtPSF0pPUMoW0NIMl1TMylbQ0gyXVtuK100W2NIXVtjSF1bY0hdW2NIXVtjSF00

> <s_epik_cmdline>
J2VwaWtfcHl0aG9uJywgJy1waHQnLCAnMC4wJywgJy1waCcsICc3LjQnLCAnLW50JywgJy1tYScsICc1MDAnLCAnLWltYWUnLCAnPGluZmlsZS5tYWU+JywgJy1vbWFlJywgJzxvdXRmaWxlLm1hZT4n

> <r_lp_tautomer_probability>
1

> <r_epik_Ionization_Penalty>
  0.0005

> <r_epik_Ionization_Penalty_Charging>
  0.0001

> <r_epik_Ionization_Penalty_Neutral>
  0.0005

> <r_epik_State_Penalty>
  0.0000

> <r_epik_Charging_Adjusted_Penalty>
5.84857251211915e-05

> <i_epik_Tot_Q>
-1

> <i_epik_Tot_abs_Q>
3

> <s_epik_Chemistry_Notes>
This compound has an imine and may undergo hydrolysis. This compound contains an acetal/aminal-like group ( X-CH(R)-Y where X, Y are N, S, or O) that may be acid/base labile, releasing an aldehyde.

> <s_m_subgroup_title>
glide-dock_Nicaido_neutral_pv1

> <s_m_subgroupid>
glide-dock_Nicaido_neutral_pv1

> <b_m_subgroup_collapsed>
0

$$$$
Cefazolin
                    3D
 Schrodinger Suite 2022-2.
 42 45  0  0  1  0            999 V2000
  -22.3505  -19.5804  -26.9909 C   0  0  0  0  0  0
  -22.6794  -20.9320  -26.4528 C   0  0  0  0  0  0
  -23.3564  -21.8565  -27.1459 N   0  0  0  0  0  0
  -23.5689  -23.0147  -26.4195 N   0  0  0  0  0  0
  -23.0232  -22.9594  -25.2037 C   0  0  0  0  0  0
  -22.1953  -21.4423  -24.8477 S   0  0  0  0  0  0
  -23.1682  -24.3284  -24.0937 S   0  0  0  0  0  0
  -22.1282  -23.8314  -22.6832 C   0  0  0  0  0  0
  -22.9654  -23.4240  -21.4757 C   0  0  0  0  0  0
  -23.1993  -24.2472  -20.4201 C   0  0  0  0  0  0
  -23.9047  -23.8326  -19.2749 N   0  0  0  0  0  0
  -24.2113  -22.4435  -18.9740 C   0  0  2  0  0  0
  -25.0812  -22.9570  -17.8034 C   0  0  2  0  0  0
  -24.4569  -24.3474  -18.1125 C   0  0  0  0  0  0
  -24.4364  -25.4517  -17.6160 O   0  0  0  0  0  0
  -26.5324  -22.7900  -18.0193 N   0  0  0  0  0  0
  -27.3397  -23.4184  -18.8942 C   0  0  0  0  0  0
  -28.7689  -22.8919  -19.0163 C   0  0  0  0  0  0
  -29.1839  -22.8124  -20.4089 N   0  0  0  0  0  0
  -29.2328  -21.7776  -21.2504 C   0  0  0  0  0  0
  -29.6077  -22.1562  -22.4656 N   0  0  0  0  0  0
  -29.8254  -23.5155  -22.3241 N   0  0  0  0  0  0
  -29.5834  -23.9107  -21.1054 N   0  0  0  0  0  0
  -26.9775  -24.3491  -19.6135 O   0  0  0  0  0  0
  -24.8785  -21.6364  -20.4625 S   0  0  0  0  0  0
  -23.4948  -21.9936  -21.5670 C   0  0  0  0  0  0
  -22.6639  -25.7169  -20.3915 C   0  0  0  0  0  0
  -21.7698  -25.9500  -19.5484 O   0  5  0  0  0  0
  -23.1602  -26.5066  -21.2302 O   0  0  0  0  0  0
  -21.9829  -19.6580  -28.0135 H   0  0  0  0  0  0
  -23.2332  -18.9404  -26.9723 H   0  0  0  0  0  0
  -21.5724  -19.1136  -26.3870 H   0  0  0  0  0  0
  -21.4161  -23.0460  -22.9198 H   0  0  0  0  0  0
  -21.4885  -24.6805  -22.4526 H   0  0  0  0  0  0
  -23.3157  -21.9239  -18.6271 H   0  0  0  0  0  0
  -24.7564  -22.5347  -16.8524 H   0  0  0  0  0  0
  -26.9617  -22.0647  -17.4606 H   0  0  0  0  0  0
  -28.8350  -21.8963  -18.5751 H   0  0  0  0  0  0
  -29.4501  -23.5498  -18.4740 H   0  0  0  0  0  0
  -28.9759  -20.7635  -20.9818 H   0  0  0  0  0  0
  -22.6785  -21.2996  -21.3641 H   0  0  0  0  0  0
  -23.8508  -21.7914  -22.5754 H   0  0  0  0  0  0
  1  2  1  0  0  0
  1 30  1  0  0  0
  1 31  1  0  0  0
  1 32  1  0  0  0
  2  6  1  0  0  0
  2  3  2  0  0  0
  3  4  1  0  0  0
  4  5  2  0  0  0
  5  6  1  0  0  0
  5  7  1  0  0  0
  7  8  1  0  0  0
  8  9  1  0  0  0
  8 33  1  0  0  0
  8 34  1  0  0  0
  9 26  1  0  0  0
  9 10  2  0  0  0
 10 11  1  0  0  0
 10 27  1  0  0  0
 11 14  1  0  0  0
 11 12  1  0  0  0
 12 13  1  0  0  0
 12 25  1  0  0  0
 12 35  1  0  0  0
 13 14  1  0  0  0
 13 16  1  0  0  0
 13 36  1  0  0  0
 14 15  2  0  0  0
 16 17  1  0  0  0
 16 37  1  0  0  0
 17 18  1  0  0  0
 17 24  2  0  0  0
 18 19  1  0  0  0
 18 38  1  0  0  0
 18 39  1  0  0  0
 19 23  1  0  0  0
 19 20  1  0  0  0
 20 21  2  0  0  0
 20 40  1  0  0  0
 21 22  1  0  0  0
 22 23  2  0  0  0
 25 26  1  0  0  0
 26 41  1  0  0  0
 26 42  1  0  0  0
 27 28  1  0  0  0
 27 29  2  0  0  0
M  CHG  1  28  -1
M  END
> <s_m_entry_id>
27412

> <s_m_entry_name>
data_maestro.2

> <s_m_Source_Path>
C:\Users\olshana1\Git\GramNeg-Accumulation\Gram Negative Permeation - OmpF

> <s_m_Source_File>
data_maestro.csv

> <i_m_Source_File_Index>
2

> <s_m_job_name>
glide-dock_Nicaido_neutral

> <s_i_glide_gridfile>
3POX-grid

> <i_i_glide_lignum>
2

> <i_i_glide_rotatable_bonds>
8

> <r_i_docking_score>
-5.08288404307641

> <r_i_glide_ligand_efficiency>
-0.175271863554359

> <r_i_glide_ligand_efficiency_sa>
-0.538490694862952

> <r_i_glide_ligand_efficiency_ln>
-1.16385155504617

> <r_i_glide_gscore>
-5.08288404307641

> <r_i_glide_lipo>
-0.149825064196681

> <r_i_glide_hbond>
-0.723310110217495

> <r_i_glide_metal>
0

> <r_i_glide_rewards>
-0.316450526049739

> <r_i_glide_evdw>
-29.684850692749

> <r_i_glide_ecoul>
-14.0245971679688

> <r_i_glide_erotb>
0.585623573400065

> <r_i_glide_esite>
-0.890989806179794

> <r_i_glide_emodel>
-67.6944579981526

> <r_i_glide_energy>
-43.7094478607178

> <r_i_glide_einternal>
8.63839054107666

> <i_i_glide_confnum>
40

> <i_i_glide_posenum>
224

> <r_i_glide_eff_state_penalty>
0

> <r_glide_res:A132_vdw>
-1.56072517539766

> <r_glide_res:A132_coul>
-52.5651408054221

> <r_glide_res:A132_hbond>
-0.342930636625608

> <r_glide_res:A132_dist>
2.04288651895099

> <r_glide_res:A132_Eint>
-54.4687966174453

> <r_glide_res:A117_vdw>
-1.00772051801688

> <r_glide_res:A117_coul>
12.5881109342152

> <r_glide_res:A117_hbond>
0

> <r_glide_res:A117_dist>
3.01031065662138

> <r_glide_res:A117_Eint>
11.5803904161983

> <r_glide_res:A113_vdw>
-2.4786372960336

> <r_glide_res:A113_coul>
5.79693236531445

> <r_glide_res:A113_hbond>
0

> <r_glide_res:A113_dist>
2.39553348297112

> <r_glide_res:A113_Eint>
3.31829506928085

> <r_glide_res:A82_vdw>
-2.13973413651067

> <r_glide_res:A82_coul>
-36.0524093511909

> <r_glide_res:A82_hbond>
0

> <r_glide_res:A82_dist>
2.49738805291327

> <r_glide_res:A82_Eint>
-38.1921434877016

> <r_glide_res:A42_vdw>
-0.960013608033931

> <r_glide_res:A42_coul>
-30.5009431542332

> <r_glide_res:A42_hbond>
0

> <r_glide_res:A42_dist>
2.15648609779598

> <r_glide_res:A42_Eint>
-31.4609567622671

> <r_glide_res:A16_vdw>
-0.135315475370149

> <r_glide_res:A16_coul>
-17.0388104425918

> <r_glide_res:A16_hbond>
0

> <r_glide_res:A16_dist>
5.78164277089633

> <r_glide_res:A16_Eint>
-17.174125917962

> <s_m_source_file>
ligprep_Nicaido_neutral.maegz

> <i_m_source_file_index>
2

> <i_lp_mmshare_version>
58128

> <i_f3d_flags>
0

> <s_lp_Force_Field>
S-OPLS

> <r_lp_Energy>
37.420105

> <b_lp_Chiralities_Consistent>
1

> <s_lp_Variant>
Cefazolin-1

> <s_epik_input>
W0NIM11jMW5uYyhzMSlTW0NIMl1DKD1DMkMoPU8pW09IXSlbQ0gyXVNbQ0BIXShOMjMpW0NASF0oQzM9TylbTkhdQyg9TylbQ0gyXW40W2NIXW5ubjQ=

> <s_epik_cmdline>
J2VwaWtfcHl0aG9uJywgJy1waHQnLCAnMC4wJywgJy1waCcsICc3LjQnLCAnLW50JywgJy1tYScsICc1MDAnLCAnLWltYWUnLCAnPGluZmlsZS5tYWU+JywgJy1vbWFlJywgJzxvdXRmaWxlLm1hZT4n

> <r_lp_tautomer_probability>
1

> <r_epik_Ionization_Penalty>
  0.0000

> <r_epik_Ionization_Penalty_Charging>
  0.0000

> <r_epik_Ionization_Penalty_Neutral>
  0.0000

> <r_epik_State_Penalty>
  0.0000

> <r_epik_Charging_Adjusted_Penalty>
8.33047029083912e-06

> <i_epik_Tot_Q>
-1

> <i_epik_Tot_abs_Q>
1

> <s_epik_Chemistry_Notes>
This compound contains an acetal/aminal-like group ( X-CH(R)-Y where X, Y are N, S, or O) that may be acid/base labile, releasing an aldehyde.

> <s_m_subgroup_title>
glide-dock_Nicaido_neutral_pv1

> <s_m_subgroupid>
glide-dock_Nicaido_neutral_pv1

> <b_m_subgroup_collapsed>
0

$$$$
Ofloxacin
                    3D
 Schrodinger Suite 2022-2.
 46 49  0  0  1  0            999 V2000
  -24.7644  -23.4704  -17.5234 C   0  0  0  0  0  0
  -25.6395  -23.2421  -18.7717 C   0  0  1  0  0  0
  -26.1793  -21.8072  -18.7468 C   0  0  0  0  0  0
  -27.1597  -21.6874  -19.7565 O   0  0  0  0  0  0
  -26.7573  -22.1323  -20.9922 C   0  0  0  0  0  0
  -25.6548  -23.0059  -21.2001 C   0  0  0  0  0  0
  -24.9610  -23.5247  -20.0541 N   0  0  0  0  0  0
  -23.8111  -24.3060  -20.1924 C   0  0  0  0  0  0
  -23.2779  -24.7415  -21.3570 C   0  0  0  0  0  0
  -23.9776  -24.3493  -22.6076 C   0  0  0  0  0  0
  -25.1550  -23.4494  -22.4484 C   0  0  0  0  0  0
  -25.8727  -22.9818  -23.5695 C   0  0  0  0  0  0
  -27.0037  -22.1550  -23.4392 C   0  0  0  0  0  0
  -27.6710  -21.7926  -24.5618 F   0  0  0  0  0  0
  -27.4462  -21.7252  -22.1667 C   0  0  0  0  0  0
  -28.5615  -20.8696  -22.1073 N   0  0  0  0  0  0
  -29.7365  -21.3914  -21.4087 C   0  0  0  0  0  0
  -30.9481  -20.4586  -21.6136 C   0  0  0  0  0  0
  -30.6052  -19.0701  -21.2135 N   0  3  0  0  0  0
  -29.4228  -18.5587  -21.9452 C   0  0  0  0  0  0
  -28.2149  -19.4942  -21.7544 C   0  0  0  0  0  0
  -31.7551  -18.1427  -21.2643 C   0  0  0  0  0  0
  -23.6644  -24.7837  -23.7189 O   0  0  0  0  0  0
  -21.9582  -25.5906  -21.3672 C   0  0  0  0  0  0
  -21.2685  -25.5496  -22.4121 O   0  5  0  0  0  0
  -21.7077  -26.2436  -20.3281 O   0  0  0  0  0  0
  -25.2836  -23.1493  -16.6209 H   0  0  0  0  0  0
  -24.5186  -24.5226  -17.3868 H   0  0  0  0  0  0
  -23.8371  -22.8990  -17.5774 H   0  0  0  0  0  0
  -26.4915  -23.9206  -18.6964 H   0  0  0  0  0  0
  -26.6555  -21.5815  -17.7922 H   0  0  0  0  0  0
  -25.3863  -21.0734  -18.8983 H   0  0  0  0  0  0
  -23.3149  -24.5465  -19.2657 H   0  0  0  0  0  0
  -25.5528  -23.2702  -24.5579 H   0  0  0  0  0  0
  -29.9702  -22.3907  -21.7740 H   0  0  0  0  0  0
  -29.5327  -21.4815  -20.3399 H   0  0  0  0  0  0
  -31.7876  -20.8184  -21.0208 H   0  0  0  0  0  0
  -31.2585  -20.4713  -22.6576 H   0  0  0  0  0  0
  -29.1773  -17.5504  -21.6119 H   0  0  0  0  0  0
  -29.6612  -18.4769  -23.0069 H   0  0  0  0  0  0
  -27.8816  -19.4459  -20.7161 H   0  0  0  0  0  0
  -27.3830  -19.1509  -22.3712 H   0  0  0  0  0  0
  -32.0774  -17.9595  -22.2906 H   0  0  0  0  0  0
  -32.6006  -18.5454  -20.7022 H   0  0  0  0  0  0
  -31.4829  -17.1864  -20.8129 H   0  0  0  0  0  0
  -30.3692  -19.1528  -20.2237 H   0  0  0  0  0  0
  1  2  1  0  0  0
  1 27  1  0  0  0
  1 28  1  0  0  0
  1 29  1  0  0  0
  2  7  1  0  0  0
  2  3  1  0  0  0
  2 30  1  0  0  0
  3  4  1  0  0  0
  3 31  1  0  0  0
  3 32  1  0  0  0
  4  5  1  0  0  0
  5 15  1  0  0  0
  5  6  2  0  0  0
  6 11  1  0  0  0
  6  7  1  0  0  0
  7  8  1  0  0  0
  8  9  2  0  0  0
  8 33  1  0  0  0
  9 10  1  0  0  0
  9 24  1  0  0  0
 10 11  1  0  0  0
 10 23  2  0  0  0
 11 12  2  0  0  0
 12 13  1  0  0  0
 12 34  1  0  0  0
 13 14  1  0  0  0
 13 15  2  0  0  0
 15 16  1  0  0  0
 16 21  1  0  0  0
 16 17  1  0  0  0
 17 18  1  0  0  0
 17 35  1  0  0  0
 17 36  1  0  0  0
 18 19  1  0  0  0
 18 37  1  0  0  0
 18 38  1  0  0  0
 19 20  1  0  0  0
 19 22  1  0  0  0
 19 46  1  0  0  0
 20 21  1  0  0  0
 20 39  1  0  0  0
 20 40  1  0  0  0
 21 41  1  0  0  0
 21 42  1  0  0  0
 22 43  1  0  0  0
 22 44  1  0  0  0
 22 45  1  0  0  0
 24 25  1  0  0  0
 24 26  2  0  0  0
M  CHG  2  19   1  25  -1
M  END
> <s_m_entry_id>
27413

> <s_m_entry_name>
data_maestro.32

> <s_m_Source_Path>
C:\Users\olshana1\Git\GramNeg-Accumulation\Gram Negative Permeation - OmpF

> <s_m_Source_File>
data_maestro.csv

> <i_m_Source_File_Index>
32

> <s_m_job_name>
glide-dock_Nicaido_neutral

> <s_i_glide_gridfile>
3POX-grid

> <i_i_glide_lignum>
41

> <i_i_glide_rotatable_bonds>
2

> <r_i_docking_score>
-5.08277802397819

> <r_i_glide_ligand_efficiency>
-0.1954914624607

> <r_i_glide_ligand_efficiency_sa>
-0.579142688318063

> <r_i_glide_ligand_efficiency_ln>
-1.19367374097627

> <r_i_glide_gscore>
-5.08277802397819

> <r_i_glide_lipo>
0

> <r_i_glide_hbond>
-0.292471290121838

> <r_i_glide_metal>
0

> <r_i_glide_rewards>
-0.945221570454544

> <r_i_glide_evdw>
-21.0379219055176

> <r_i_glide_ecoul>
-17.155632019043

> <r_i_glide_erotb>
0.146950134654495

> <r_i_glide_esite>
-0.366794399923983

> <r_i_glide_emodel>
-62.2541333846511

> <r_i_glide_energy>
-38.1935539245605

> <r_i_glide_einternal>
0.409093350172043

> <i_i_glide_confnum>
2

> <i_i_glide_posenum>
298

> <r_i_glide_eff_state_penalty>
0

> <r_glide_res:A132_vdw>
-2.48895601698733

> <r_glide_res:A132_coul>
-9.39048880588631

> <r_glide_res:A132_hbond>
0

> <r_glide_res:A132_dist>
2.55916957239384

> <r_glide_res:A132_Eint>
-11.8794448228736

> <r_glide_res:A117_vdw>
-0.393072901360409

> <r_glide_res:A117_coul>
-8.06711390109219

> <r_glide_res:A117_hbond>
0

> <r_glide_res:A117_dist>
2.28049923197467

> <r_glide_res:A117_Eint>
-8.4601868024526

> <r_glide_res:A113_vdw>
-1.16283338556938

> <r_glide_res:A113_coul>
-36.0270842764763

> <r_glide_res:A113_hbond>
-0.175959720273886

> <r_glide_res:A113_dist>
1.80260604342095

> <r_glide_res:A113_Eint>
-37.3658773823195

> <r_glide_res:A82_vdw>
-1.90661682757972

> <r_glide_res:A82_coul>
-4.76130472006651

> <r_glide_res:A82_hbond>
0

> <r_glide_res:A82_dist>
2.63425181488583

> <r_glide_res:A82_Eint>
-6.66792154764623

> <r_glide_res:A42_vdw>
-1.16293045898555

> <r_glide_res:A42_coul>
-4.26610356832979

> <r_glide_res:A42_hbond>
0

> <r_glide_res:A42_dist>
2.06957326277489

> <r_glide_res:A42_Eint>
-5.42903402731534

> <r_glide_res:A16_vdw>
-0.141259604729021

> <r_glide_res:A16_coul>
4.8403579117124

> <r_glide_res:A16_hbond>
0

> <r_glide_res:A16_dist>
4.46425734020893

> <r_glide_res:A16_Eint>
4.69909830698337

> <s_m_source_file>
ligprep_Nicaido_neutral.maegz

> <i_m_source_file_index>
32

> <i_lp_mmshare_version>
58128

> <i_f3d_flags>
0

> <s_lp_Force_Field>
S-OPLS

> <r_lp_Energy>
60.370079

> <b_lp_Chiralities_Consistent>
1

> <s_lp_Variant>
Ofloxacin-1

> <s_epik_input>
TzFbQ0gyXVtDQEhdKFtDSDNdKW4oYzJjMTMpW2NIXWMoQyg9TylbT0hdKWMoPU8pYzJbY0hdYyhGKWMzTjRbQ0gyXVtDSDJdTihbQ0gzXSlbQ0gyXVtDSDJdNA==

> <s_epik_cmdline>
J2VwaWtfcHl0aG9uJywgJy1waHQnLCAnMC4wJywgJy1waCcsICc3LjQnLCAnLW50JywgJy1tYScsICc1MDAnLCAnLWltYWUnLCAnPGluZmlsZS5tYWU+JywgJy1vbWFlJywgJzxvdXRmaWxlLm1hZT4n

> <r_lp_tautomer_probability>
1

> <r_epik_Ionization_Penalty>
  0.1907

> <r_epik_Ionization_Penalty_Charging>
  0.1907

> <r_epik_Ionization_Penalty_Neutral>
  0.0000

> <r_epik_State_Penalty>
  0.0000

> <r_epik_Charging_Adjusted_Penalty>
0.190712686691679

> <i_epik_Tot_Q>
0

> <i_epik_Tot_abs_Q>
2

> <s_m_subgroup_title>
glide-dock_Nicaido_neutral_pv1

> <s_m_subgroupid>
glide-dock_Nicaido_neutral_pv1

> <b_m_subgroup_collapsed>
0

$$$$
Cefotaxime
                    3D
 Schrodinger Suite 2022-2.
 46 48  0  0  1  0            999 V2000
  -35.1680  -22.2647  -19.4241 C   0  0  0  0  0  0
  -34.7341  -22.3397  -20.8807 C   0  0  0  0  0  0
  -33.4141  -22.5762  -21.0196 O   0  0  0  0  0  0
  -32.8313  -22.7040  -22.3130 C   0  0  0  0  0  0
  -31.9285  -21.5344  -22.7154 C   0  0  0  0  0  0
  -31.1622  -21.5769  -23.8403 C   0  0  0  0  0  0
  -30.2768  -20.5373  -24.1620 N   0  0  0  0  0  0
  -29.6821  -19.6917  -23.1498 C   0  0  1  0  0  0
  -28.8618  -19.0261  -24.2730 C   0  0  2  0  0  0
  -29.5678  -20.0225  -25.2310 C   0  0  0  0  0  0
  -29.5685  -20.2949  -26.4134 O   0  0  0  0  0  0
  -27.4136  -19.1908  -24.0655 N   0  0  0  0  0  0
  -26.6081  -20.2500  -24.2954 C   0  0  0  0  0  0
  -25.1695  -20.0111  -23.8497 C   0  0  0  0  0  0
  -24.1567  -20.5212  -24.8090 C   0  0  0  0  0  0
  -23.0700  -19.7541  -25.1631 C   0  0  0  0  0  0
  -22.0019  -20.5754  -26.2659 S   0  0  0  0  0  0
  -23.0546  -21.9729  -26.1580 C   0  0  0  0  0  0
  -22.7690  -23.1497  -26.8134 N   0  0  0  0  0  0
  -24.1246  -21.7975  -25.3901 N   0  0  0  0  0  0
  -24.7759  -19.4305  -22.7806 N   0  0  0  0  0  0
  -25.8003  -19.1496  -21.8649 O   0  0  0  0  0  0
  -25.2563  -18.3500  -20.8313 C   0  0  0  0  0  0
  -26.9610  -21.3142  -24.8138 O   0  0  0  0  0  0
  -31.0545  -18.8589  -22.3094 S   0  0  0  0  0  0
  -31.9183  -20.3519  -21.7333 C   0  0  0  0  0  0
  -31.1087  -22.8137  -24.8124 C   0  0  0  0  0  0
  -32.1871  -23.3769  -25.0932 O   0  5  0  0  0  0
  -29.9688  -23.1497  -25.2134 O   0  0  0  0  0  0
  -35.5470  -22.2013  -21.7945 O   0  0  0  0  0  0
  -34.3341  -21.9497  -18.7979 H   0  0  0  0  0  0
  -35.9753  -21.5423  -19.3038 H   0  0  0  0  0  0
  -35.5152  -23.2384  -19.0806 H   0  0  0  0  0  0
  -33.5950  -22.8399  -23.0796 H   0  0  0  0  0  0
  -32.2339  -23.6159  -22.3118 H   0  0  0  0  0  0
  -29.0835  -20.2765  -22.4481 H   0  0  0  0  0  0
  -29.1512  -17.9854  -24.4218 H   0  0  0  0  0  0
  -26.9745  -18.4120  -23.5824 H   0  0  0  0  0  0
  -22.8431  -18.7490  -24.8446 H   0  0  0  0  0  0
  -23.5046  -23.8083  -27.0146 H   0  0  0  0  0  0
  -22.0143  -23.1485  -27.4953 H   0  0  0  0  0  0
  -26.0432  -18.0869  -20.1239 H   0  0  0  0  0  0
  -24.4766  -18.8825  -20.2854 H   0  0  0  0  0  0
  -24.8370  -17.4245  -21.2289 H   0  0  0  0  0  0
  -32.9369  -20.0583  -21.4792 H   0  0  0  0  0  0
  -31.4407  -20.6872  -20.8134 H   0  0  0  0  0  0
  1  2  1  0  0  0
  1 31  1  0  0  0
  1 32  1  0  0  0
  1 33  1  0  0  0
  2  3  1  0  0  0
  2 30  2  0  0  0
  3  4  1  0  0  0
  4  5  1  0  0  0
  4 34  1  0  0  0
  4 35  1  0  0  0
  5 26  1  0  0  0
  5  6  2  0  0  0
  6  7  1  0  0  0
  6 27  1  0  0  0
  7 10  1  0  0  0
  7  8  1  0  0  0
  8  9  1  0  0  0
  8 25  1  0  0  0
  8 36  1  0  0  0
  9 10  1  0  0  0
  9 12  1  0  0  0
  9 37  1  0  0  0
 10 11  2  0  0  0
 12 13  1  0  0  0
 12 38  1  0  0  0
 13 14  1  0  0  0
 13 24  2  0  0  0
 14 15  1  0  0  0
 14 21  2  3  0  0
 15 20  1  0  0  0
 15 16  2  0  0  0
 16 17  1  0  0  0
 16 39  1  0  0  0
 17 18  1  0  0  0
 18 19  1  0  0  0
 18 20  2  0  0  0
 19 40  1  0  0  0
 19 41  1  0  0  0
 21 22  1  0  0  0
 22 23  1  0  0  0
 23 42  1  0  0  0
 23 43  1  0  0  0
 23 44  1  0  0  0
 25 26  1  0  0  0
 26 45  1  0  0  0
 26 46  1  0  0  0
 27 28  1  0  0  0
 27 29  2  0  0  0
M  CHG  1  28  -1
M  END
> <s_m_entry_id>
27414

> <s_m_entry_name>
data_maestro.6

> <s_m_Source_Path>
C:\Users\olshana1\Git\GramNeg-Accumulation\Gram Negative Permeation - OmpF

> <s_m_Source_File>
data_maestro.csv

> <i_m_Source_File_Index>
6

> <s_m_job_name>
glide-dock_Nicaido_neutral

> <s_i_glide_gridfile>
3POX-grid

> <i_i_glide_lignum>
8

> <i_i_glide_rotatable_bonds>
9

> <r_i_docking_score>
-5.07945649852074

> <r_i_glide_ligand_efficiency>
-0.169315216617358

> <r_i_glide_ligand_efficiency_sa>
-0.526101744229615

> <r_i_glide_ligand_efficiency_ln>
-1.15410786157526

> <r_i_glide_gscore>
-5.07945649852074

> <r_i_glide_lipo>
-0.10191427703562

> <r_i_glide_hbond>
-1.1637358105509

> <r_i_glide_metal>
0

> <r_i_glide_rewards>
-0.309287886293794

> <r_i_glide_evdw>
-33.8232154846191

> <r_i_glide_ecoul>
-12.4619312286377

> <r_i_glide_erotb>
0.680611118548691

> <r_i_glide_esite>
-0.624679184662508

> <r_i_glide_emodel>
-66.0636702829638

> <r_i_glide_energy>
-46.2851467132568

> <r_i_glide_einternal>
13.3010225296021

> <i_i_glide_confnum>
153

> <i_i_glide_posenum>
156

> <r_i_glide_eff_state_penalty>
0

> <r_glide_res:A132_vdw>
-0.387648071704458

> <r_glide_res:A132_coul>
-23.410811410721

> <r_glide_res:A132_hbond>
0

> <r_glide_res:A132_dist>
4.86308058267213

> <r_glide_res:A132_Eint>
-23.7984594824255

> <r_glide_res:A117_vdw>
-6.17687448682306

> <r_glide_res:A117_coul>
12.0739358197518

> <r_glide_res:A117_hbond>
-0.274397447617863

> <r_glide_res:A117_dist>
1.9719279390498

> <r_glide_res:A117_Eint>
5.62266388531092

> <r_glide_res:A113_vdw>
-4.26761760096723

> <r_glide_res:A113_coul>
20.6484076288302

> <r_glide_res:A113_hbond>
0

> <r_glide_res:A113_dist>
2.25667448357374

> <r_glide_res:A113_Eint>
16.380790027863

> <r_glide_res:A82_vdw>
-1.55744025363028

> <r_glide_res:A82_coul>
-36.1445907653308

> <r_glide_res:A82_hbond>
0

> <r_glide_res:A82_dist>
3.06650652966008

> <r_glide_res:A82_Eint>
-37.702031018961

> <r_glide_res:A42_vdw>
-0.770276769490264

> <r_glide_res:A42_coul>
-52.5554772191553

> <r_glide_res:A42_hbond>
-0.326288706906771

> <r_glide_res:A42_dist>
1.74328442106929

> <r_glide_res:A42_Eint>
-53.6520426955524

> <r_glide_res:A16_vdw>
-0.909310438689778

> <r_glide_res:A16_coul>
-44.9060631704597

> <r_glide_res:A16_hbond>
-0.140211423925212

> <r_glide_res:A16_dist>
2.0457597146335

> <r_glide_res:A16_Eint>
-45.9555850330746

> <s_m_source_file>
ligprep_Nicaido_neutral.maegz

> <i_m_source_file_index>
6

> <i_lp_mmshare_version>
58128

> <i_f3d_flags>
0

> <s_lp_Force_Field>
S-OPLS

> <r_lp_Energy>
51.702138

> <b_lp_Chiralities_Consistent>
1

> <s_lp_Variant>
Cefotaxime-2

> <s_epik_input>
W0NIM11DKD1PKU9bQ0gyXUMoPUMxQyg9TylbT0hdKVtDSDJdU1tDQEBIXShOMTIpW0NASF0oQzI9TylbTkhdQyg9TykvQyg9Ti9PW0NIM10pYzNbY0hdc2MobjMpW05IMl0=

> <s_epik_cmdline>
J2VwaWtfcHl0aG9uJywgJy1waHQnLCAnMC4wJywgJy1waCcsICc3LjQnLCAnLW50JywgJy1tYScsICc1MDAnLCAnLWltYWUnLCAnPGluZmlsZS5tYWU+JywgJy1vbWFlJywgJzxvdXRmaWxlLm1hZT4n

> <r_lp_tautomer_probability>
1

> <r_epik_Ionization_Penalty>
  0.0004

> <r_epik_Ionization_Penalty_Charging>
  0.0000

> <r_epik_Ionization_Penalty_Neutral>
  0.0004

> <r_epik_State_Penalty>
  0.0000

> <r_epik_Charging_Adjusted_Penalty>
5.45682606121274e-06

> <i_epik_Tot_Q>
-1

> <i_epik_Tot_abs_Q>
1

> <s_epik_Chemistry_Notes>
This compound has an ester and may undergo hydrolysis at high or low pH. This compound has an imine and may undergo hydrolysis. This compound contains an acetal/aminal-like group ( X-CH(R)-Y where X, Y are N, S, or O) that may be acid/base labile, releasing an aldehyde.

> <s_m_subgroup_title>
glide-dock_Nicaido_neutral_pv1

> <s_m_subgroupid>
glide-dock_Nicaido_neutral_pv1

> <b_m_subgroup_collapsed>
0

$$$$
Cefmetazole
                    3D
 Schrodinger Suite 2022-2.
 46 48  0  0  1  0            999 V2000
  -31.1746  -18.7604  -21.5451 C   0  0  0  0  0  0
  -30.3961  -19.2152  -22.6807 N   0  0  0  0  0  0
  -29.9142  -20.4225  -23.0129 C   0  0  0  0  0  0
  -30.1437  -21.9001  -22.0781 S   0  0  0  0  0  0
  -29.0509  -21.5635  -20.6556 C   0  0  0  0  0  0
  -27.6922  -20.9754  -21.0193 C   0  0  0  0  0  0
  -26.7033  -21.7082  -21.5950 C   0  0  0  0  0  0
  -25.5035  -21.1230  -22.0406 N   0  0  0  0  0  0
  -25.3484  -19.6864  -22.2052 C   0  0  2  0  0  0
  -23.8838  -19.9614  -22.6101 C   0  0  1  0  0  0
  -22.9196  -19.7640  -21.5713 O   0  0  0  0  0  0
  -22.4633  -18.4251  -21.4092 C   0  0  0  0  0  0
  -24.3276  -21.4544  -22.6870 C   0  0  0  0  0  0
  -23.9100  -22.5026  -23.1324 O   0  0  0  0  0  0
  -23.5315  -19.3830  -23.9138 N   0  0  0  0  0  0
  -22.4591  -19.7416  -24.6356 C   0  0  0  0  0  0
  -22.3662  -19.1933  -26.0568 C   0  0  0  0  0  0
  -21.5681  -20.3497  -27.2149 S   0  0  0  0  0  0
  -22.7493  -21.7333  -27.2437 C   0  0  0  0  0  0
  -22.3598  -22.8208  -26.3279 C   0  0  0  0  0  0
  -22.0609  -23.6859  -25.6144 N   0  0  0  0  0  0
  -21.5888  -20.5018  -24.2119 O   0  0  0  0  0  0
  -25.8319  -18.9212  -20.6321 S   0  0  0  0  0  0
  -27.5498  -19.4860  -20.6802 C   0  0  0  0  0  0
  -26.8151  -23.2622  -21.7553 C   0  0  0  0  0  0
  -26.3643  -23.9495  -20.8133 O   0  5  0  0  0  0
  -27.3135  -23.7094  -22.8126 O   0  0  0  0  0  0
  -29.2629  -20.3653  -24.1694 N   0  0  0  0  0  0
  -29.3469  -19.0337  -24.5306 N   0  0  0  0  0  0
  -30.0233  -18.3479  -23.6542 N   0  0  0  0  0  0
  -31.8386  -17.9481  -21.8447 H   0  0  0  0  0  0
  -31.7775  -19.5791  -21.1513 H   0  0  0  0  0  0
  -30.5069  -18.3981  -20.7614 H   0  0  0  0  0  0
  -28.9324  -22.4737  -20.0682 H   0  0  0  0  0  0
  -29.5689  -20.8642  -20.0134 H   0  0  0  0  0  0
  -25.9689  -19.3195  -23.0270 H   0  0  0  0  0  0
  -21.8552  -18.3576  -20.5075 H   0  0  0  0  0  0
  -21.8417  -18.1071  -22.2466 H   0  0  0  0  0  0
  -23.2891  -17.7206  -21.3092 H   0  0  0  0  0  0
  -24.1581  -18.6850  -24.3042 H   0  0  0  0  0  0
  -21.7899  -18.2679  -26.0326 H   0  0  0  0  0  0
  -23.3582  -18.9399  -26.4341 H   0  0  0  0  0  0
  -22.7686  -22.1575  -28.2470 H   0  0  0  0  0  0
  -23.7558  -21.3901  -27.0057 H   0  0  0  0  0  0
  -28.0823  -18.8828  -21.4112 H   0  0  0  0  0  0
  -27.9911  -19.2749  -19.7051 H   0  0  0  0  0  0
  1  2  1  0  0  0
  1 31  1  0  0  0
  1 32  1  0  0  0
  1 33  1  0  0  0
  2 30  1  0  0  0
  2  3  1  0  0  0
  3  4  1  0  0  0
  3 28  2  0  0  0
  4  5  1  0  0  0
  5  6  1  0  0  0
  5 34  1  0  0  0
  5 35  1  0  0  0
  6 24  1  0  0  0
  6  7  2  0  0  0
  7  8  1  0  0  0
  7 25  1  0  0  0
  8 13  1  0  0  0
  8  9  1  0  0  0
  9 10  1  0  0  0
  9 23  1  0  0  0
  9 36  1  0  0  0
 10 11  1  0  0  0
 10 13  1  0  0  0
 10 15  1  0  0  0
 11 12  1  0  0  0
 12 37  1  0  0  0
 12 38  1  0  0  0
 12 39  1  0  0  0
 13 14  2  0  0  0
 15 16  1  0  0  0
 15 40  1  0  0  0
 16 17  1  0  0  0
 16 22  2  0  0  0
 17 18  1  0  0  0
 17 41  1  0  0  0
 17 42  1  0  0  0
 18 19  1  0  0  0
 19 20  1  0  0  0
 19 43  1  0  0  0
 19 44  1  0  0  0
 20 21  3  0  0  0
 23 24  1  0  0  0
 24 45  1  0  0  0
 24 46  1  0  0  0
 25 26  1  0  0  0
 25 27  2  0  0  0
 28 29  1  0  0  0
 29 30  2  0  0  0
M  CHG  1  26  -1
M  END
> <s_m_entry_id>
27415

> <s_m_entry_name>
data_maestro.3

> <s_m_Source_Path>
C:\Users\olshana1\Git\GramNeg-Accumulation\Gram Negative Permeation - OmpF

> <s_m_Source_File>
data_maestro.csv

> <i_m_Source_File_Index>
3

> <s_m_job_name>
glide-dock_Nicaido_neutral

> <s_i_glide_gridfile>
3POX-grid

> <i_i_glide_lignum>
3

> <i_i_glide_rotatable_bonds>
10

> <r_i_docking_score>
-5.07730752079936

> <r_i_glide_ligand_efficiency>
-0.169243584026645

> <r_i_glide_ligand_efficiency_sa>
-0.525879165115519

> <r_i_glide_ligand_efficiency_ln>
-1.15361959042197

> <r_i_glide_gscore>
-5.07730752079936

> <r_i_glide_lipo>
-0.410732666045218

> <r_i_glide_hbond>
-0.520595430968368

> <r_i_glide_metal>
0

> <r_i_glide_rewards>
-0.199567701032176

> <r_i_glide_evdw>
-34.6889572143555

> <r_i_glide_ecoul>
-14.8123140335083

> <r_i_glide_erotb>
0.638850535935238

> <r_i_glide_esite>
-0.628967292944815

> <r_i_glide_emodel>
-71.6865888011192

> <r_i_glide_energy>
-49.5012712478638

> <r_i_glide_einternal>
11.340802192688

> <i_i_glide_confnum>
233

> <i_i_glide_posenum>
19

> <r_i_glide_eff_state_penalty>
0

> <r_glide_res:A132_vdw>
-0.516221510376212

> <r_glide_res:A132_coul>
-49.0555032691463

> <r_glide_res:A132_hbond>
-0.2

> <r_glide_res:A132_dist>
1.82302005708105

> <r_glide_res:A132_Eint>
-49.7717247795225

> <r_glide_res:A117_vdw>
-6.14702669710302

> <r_glide_res:A117_coul>
6.57006715624445

> <r_glide_res:A117_hbond>
-0.120595430968368

> <r_glide_res:A117_dist>
2.19851142257908

> <r_glide_res:A117_Eint>
0.302445028173062

> <r_glide_res:A113_vdw>
-2.77063128388046

> <r_glide_res:A113_coul>
14.879075859714

> <r_glide_res:A113_hbond>
0

> <r_glide_res:A113_dist>
2.132783160875

> <r_glide_res:A113_Eint>
12.1084445758335

> <r_glide_res:A82_vdw>
0.0299734315837214

> <r_glide_res:A82_coul>
-48.0153255724196

> <r_glide_res:A82_hbond>
-0.2

> <r_glide_res:A82_dist>
1.76584266173825

> <r_glide_res:A82_Eint>
-48.1853521408359

> <r_glide_res:A42_vdw>
-1.46839543287498

> <r_glide_res:A42_coul>
-30.9828463646874

> <r_glide_res:A42_hbond>
0

> <r_glide_res:A42_dist>
2.88055913298419

> <r_glide_res:A42_Eint>
-32.4512417975624

> <r_glide_res:A16_vdw>
-0.340128437827589

> <r_glide_res:A16_coul>
-19.8284209012519

> <r_glide_res:A16_hbond>
0

> <r_glide_res:A16_dist>
4.15896766160284

> <r_glide_res:A16_Eint>
-20.1685493390795

> <s_m_source_file>
ligprep_Nicaido_neutral.maegz

> <i_m_source_file_index>
3

> <i_lp_mmshare_version>
58128

> <i_f3d_flags>
0

> <s_lp_Force_Field>
S-OPLS

> <r_lp_Energy>
32.161431

> <b_lp_Chiralities_Consistent>
1

> <s_lp_Variant>
Cefmetazole-1

> <s_epik_input>
bjFubmMobjFbQ0gzXSlTW0NIMl1DKD1DMkMoPU8pW09IXSlbQ0gyXVNbQ0BIXShOMjMpW0NAXShDMz1PKShPW0NIM10pW05IXUMoPU8pW0NIMl1TW0NIMl1DI04=

> <s_epik_cmdline>
J2VwaWtfcHl0aG9uJywgJy1waHQnLCAnMC4wJywgJy1waCcsICc3LjQnLCAnLW50JywgJy1tYScsICc1MDAnLCAnLWltYWUnLCAnPGluZmlsZS5tYWU+JywgJy1vbWFlJywgJzxvdXRmaWxlLm1hZT4n

> <r_lp_tautomer_probability>
1

> <r_epik_Ionization_Penalty>
  0.0000

> <r_epik_Ionization_Penalty_Charging>
  0.0000

> <r_epik_Ionization_Penalty_Neutral>
  0.0000

> <r_epik_State_Penalty>
  0.0000

> <r_epik_Charging_Adjusted_Penalty>
8.27330724987756e-06

> <i_epik_Tot_Q>
-1

> <i_epik_Tot_abs_Q>
1

> <s_epik_Chemistry_Notes>
This compound contains an acetal/aminal-like group ( X-CH(R)-Y where X, Y are N, S, or O) that may be acid/base labile, releasing an aldehyde.

> <s_m_subgroup_title>
glide-dock_Nicaido_neutral_pv1

> <s_m_subgroupid>
glide-dock_Nicaido_neutral_pv1

> <b_m_subgroup_collapsed>
0

$$$$
Cefuroxime
                    3D
 Schrodinger Suite 2022-2.
 44 46  0  0  1  0            999 V2000
  -29.5688  -24.7008  -17.7277 C   0  0  0  0  0  0
  -28.5814  -24.3507  -18.6751 O   0  0  0  0  0  0
  -27.6225  -23.5655  -18.0148 N   0  0  0  0  0  0
  -27.2052  -22.5748  -18.7021 C   0  0  0  0  0  0
  -26.0987  -21.7521  -18.2119 C   0  0  0  0  0  0
  -25.1672  -21.9149  -17.2202 C   0  0  0  0  0  0
  -24.3652  -20.7412  -17.2117 C   0  0  0  0  0  0
  -24.8766  -19.9284  -18.1822 C   0  0  0  0  0  0
  -25.9290  -20.5278  -18.7990 O   0  0  0  0  0  0
  -27.7422  -22.1725  -20.0613 C   0  0  0  0  0  0
  -29.0790  -22.0037  -20.0609 N   0  0  0  0  0  0
  -29.9789  -21.6816  -21.1720 C   0  0  1  0  0  0
  -29.6108  -20.3871  -21.9158 C   0  0  1  0  0  0
  -29.6766  -21.1632  -23.1425 N   0  0  0  0  0  0
  -29.6814  -22.4018  -22.5092 C   0  0  0  0  0  0
  -29.4826  -23.5410  -22.8856 O   0  0  0  0  0  0
  -29.4262  -20.5706  -24.3956 C   0  0  0  0  0  0
  -28.9316  -21.5495  -25.5053 C   0  0  0  0  0  0
  -27.9711  -22.2986  -25.2133 O   0  5  0  0  0  0
  -29.5690  -21.5495  -26.5825 O   0  0  0  0  0  0
  -29.5257  -19.2266  -24.5973 C   0  0  0  0  0  0
  -30.0167  -18.2442  -23.5276 C   0  0  0  0  0  0
  -30.7812  -19.0135  -22.0788 S   0  0  0  0  0  0
  -29.0924  -18.5283  -25.8873 C   0  0  0  0  0  0
  -30.0972  -17.6376  -26.3471 O   0  0  0  0  0  0
  -30.5346  -17.6466  -27.6073 C   0  0  0  0  0  0
  -31.5683  -16.7495  -27.6936 N   0  0  0  0  0  0
  -30.1148  -18.3495  -28.5260 O   0  0  0  0  0  0
  -27.0069  -22.0633  -21.0439 O   0  0  0  0  0  0
  -30.4162  -25.1499  -18.2413 H   0  0  0  0  0  0
  -29.1860  -25.4066  -16.9893 H   0  0  0  0  0  0
  -29.9450  -23.8157  -17.2140 H   0  0  0  0  0  0
  -25.0835  -22.7749  -16.5713 H   0  0  0  0  0  0
  -23.5353  -20.5096  -16.5601 H   0  0  0  0  0  0
  -24.6353  -18.9382  -18.5407 H   0  0  0  0  0  0
  -29.5535  -22.0862  -19.1654 H   0  0  0  0  0  0
  -31.0292  -21.6965  -20.8779 H   0  0  0  0  0  0
  -28.5975  -20.0216  -21.7349 H   0  0  0  0  0  0
  -29.1721  -17.6496  -23.1954 H   0  0  0  0  0  0
  -30.7452  -17.5466  -23.9403 H   0  0  0  0  0  0
  -28.1998  -17.9447  -25.6636 H   0  0  0  0  0  0
  -28.7963  -19.2328  -26.6608 H   0  0  0  0  0  0
  -31.7233  -16.1596  -26.8862 H   0  0  0  0  0  0
  -32.0149  -16.6128  -28.5854 H   0  0  0  0  0  0
  1  2  1  0  0  0
  1 30  1  0  0  0
  1 31  1  0  0  0
  1 32  1  0  0  0
  2  3  1  0  0  0
  3  4  2  3  0  0
  4  5  1  0  0  0
  4 10  1  0  0  0
  5  9  1  0  0  0
  5  6  2  0  0  0
  6  7  1  0  0  0
  6 33  1  0  0  0
  7  8  2  0  0  0
  7 34  1  0  0  0
  8  9  1  0  0  0
  8 35  1  0  0  0
 10 11  1  0  0  0
 10 29  2  0  0  0
 11 12  1  0  0  0
 11 36  1  0  0  0
 12 15  1  0  0  0
 12 13  1  0  0  0
 12 37  1  0  0  0
 13 23  1  0  0  0
 13 14  1  0  0  0
 13 38  1  0  0  0
 14 15  1  0  0  0
 14 17  1  0  0  0
 15 16  2  0  0  0
 17 18  1  0  0  0
 17 21  2  0  0  0
 18 19  1  0  0  0
 18 20  2  0  0  0
 21 22  1  0  0  0
 21 24  1  0  0  0
 22 23  1  0  0  0
 22 39  1  0  0  0
 22 40  1  0  0  0
 24 25  1  0  0  0
 24 41  1  0  0  0
 24 42  1  0  0  0
 25 26  1  0  0  0
 26 27  1  0  0  0
 26 28  2  0  0  0
 27 43  1  0  0  0
 27 44  1  0  0  0
M  CHG  1  19  -1
M  END
> <s_m_entry_id>
27416

> <s_m_entry_name>
data_maestro.10

> <s_m_Source_Path>
C:\Users\olshana1\Git\GramNeg-Accumulation\Gram Negative Permeation - OmpF

> <s_m_Source_File>
data_maestro.csv

> <i_m_Source_File_Index>
10

> <s_m_job_name>
glide-dock_Nicaido_neutral

> <s_i_glide_gridfile>
3POX-grid

> <i_i_glide_lignum>
14

> <i_i_glide_rotatable_bonds>
9

> <r_i_docking_score>
-5.07450648933529

> <r_i_glide_ligand_efficiency>
-0.174982982390872

> <r_i_glide_ligand_efficiency_sa>
-0.537603160404744

> <r_i_glide_ligand_efficiency_ln>
-1.16193330767589

> <r_i_glide_gscore>
-5.07450648933529

> <r_i_glide_lipo>
0

> <r_i_glide_hbond>
-1.03807565590302

> <r_i_glide_metal>
0

> <r_i_glide_rewards>
0.0253654911596448

> <r_i_glide_evdw>
-34.1475410461426

> <r_i_glide_ecoul>
-14.6550407409668

> <r_i_glide_erotb>
0.663396273735242

> <r_i_glide_esite>
-0.81955943487501

> <r_i_glide_emodel>
-68.7027065093562

> <r_i_glide_energy>
-48.8025817871094

> <r_i_glide_einternal>
10.4580707550049

> <i_i_glide_confnum>
52

> <i_i_glide_posenum>
284

> <r_i_glide_eff_state_penalty>
0

> <r_glide_res:A132_vdw>
-1.97487189591109

> <r_glide_res:A132_coul>
-29.0756936548053

> <r_glide_res:A132_hbond>
0

> <r_glide_res:A132_dist>
2.29381731677797

> <r_glide_res:A132_Eint>
-31.0505655507164

> <r_glide_res:A117_vdw>
-4.20862820844185

> <r_glide_res:A117_coul>
24.9103046935158

> <r_glide_res:A117_hbond>
0

> <r_glide_res:A117_dist>
2.2021857715294

> <r_glide_res:A117_Eint>
20.7016764850739

> <r_glide_res:A113_vdw>
-3.60433038237458

> <r_glide_res:A113_coul>
10.4074259229608

> <r_glide_res:A113_hbond>
-0.154099305207892

> <r_glide_res:A113_dist>
1.97787955263471

> <r_glide_res:A113_Eint>
6.64899623537837

> <r_glide_res:A82_vdw>
-1.59798532249982

> <r_glide_res:A82_coul>
-40.4775706227464

> <r_glide_res:A82_hbond>
-0.10881190829009

> <r_glide_res:A82_dist>
2.22797022927478

> <r_glide_res:A82_Eint>
-42.1843678535363

> <r_glide_res:A42_vdw>
3.72956930935625

> <r_glide_res:A42_coul>
-57.5974431887939

> <r_glide_res:A42_hbond>
-0.362267480984774

> <r_glide_res:A42_dist>
1.62764509308165

> <r_glide_res:A42_Eint>
-54.2301413604224

> <r_glide_res:A16_vdw>
1.00822039138161

> <r_glide_res:A16_coul>
-58.0909540980141

> <r_glide_res:A16_hbond>
-0.308695419750546

> <r_glide_res:A16_dist>
1.74280771412313

> <r_glide_res:A16_Eint>
-57.3914291263831

> <s_m_source_file>
ligprep_Nicaido_neutral.maegz

> <i_m_source_file_index>
10

> <i_lp_mmshare_version>
58128

> <i_f3d_flags>
0

> <s_lp_Force_Field>
S-OPLS

> <r_lp_Energy>
45.356438

> <b_lp_Chiralities_Consistent>
1

> <s_lp_Variant>
Cefuroxime-2

> <s_epik_input>
bzFbY0hdW2NIXVtjSF1jMS9DKD1OXE9bQ0gzXSlDKD1PKVtOSF1bQ0BASF0yQyg9TylOKFtDQEhdMjMpQyhDKD1PKVtPSF0pPUMoW0NIMl1TMylbQ0gyXU9DKD1PKVtOSDJd

> <s_epik_cmdline>
J2VwaWtfcHl0aG9uJywgJy1waHQnLCAnMC4wJywgJy1waCcsICc3LjQnLCAnLW50JywgJy1tYScsICc1MDAnLCAnLWltYWUnLCAnPGluZmlsZS5tYWU+JywgJy1vbWFlJywgJzxvdXRmaWxlLm1hZT4n

> <r_lp_tautomer_probability>
1

> <r_epik_Ionization_Penalty>
  0.0000

> <r_epik_Ionization_Penalty_Charging>
  0.0000

> <r_epik_Ionization_Penalty_Neutral>
  0.0000

> <r_epik_State_Penalty>
  0.0000

> <r_epik_Charging_Adjusted_Penalty>
8.57368987839538e-06

> <i_epik_Tot_Q>
-1

> <i_epik_Tot_abs_Q>
1

> <s_epik_Chemistry_Notes>
This compound has an ester and may undergo hydrolysis at high or low pH. This compound has an imine and may undergo hydrolysis. This compound contains an acetal/aminal-like group ( X-CH(R)-Y where X, Y are N, S, or O) that may be acid/base labile, releasing an aldehyde.

> <s_m_subgroup_title>
glide-dock_Nicaido_neutral_pv1

> <s_m_subgroupid>
glide-dock_Nicaido_neutral_pv1

> <b_m_subgroup_collapsed>
0

$$$$
Cefazolin
                    3D
 Schrodinger Suite 2022-2.
 42 45  0  0  1  0            999 V2000
  -34.8974  -15.7502  -29.2140 C   0  0  0  0  0  0
  -33.7790  -16.5893  -28.7146 C   0  0  0  0  0  0
  -33.4649  -17.7799  -29.2379 N   0  0  0  0  0  0
  -32.3665  -18.3490  -28.6120 N   0  0  0  0  0  0
  -31.8781  -17.5667  -27.6417 C   0  0  0  0  0  0
  -32.7689  -16.0776  -27.3754 S   0  0  0  0  0  0
  -30.4394  -17.9500  -26.7122 S   0  0  0  0  0  0
  -31.1702  -19.1203  -25.5319 C   0  0  0  0  0  0
  -30.1602  -19.5088  -24.4551 C   0  0  0  0  0  0
  -29.3694  -20.6191  -24.5123 C   0  0  0  0  0  0
  -28.3870  -20.8928  -23.5368 N   0  0  0  0  0  0
  -27.9210  -19.8988  -22.5868 C   0  0  2  0  0  0
  -27.0571  -21.0079  -21.9537 C   0  0  2  0  0  0
  -27.3976  -21.8148  -23.2361 C   0  0  0  0  0  0
  -26.9879  -22.8076  -23.8035 O   0  0  0  0  0  0
  -27.6131  -21.5198  -20.6963 N   0  0  0  0  0  0
  -27.3958  -22.7436  -20.1902 C   0  0  0  0  0  0
  -27.7997  -22.9520  -18.7220 C   0  0  0  0  0  0
  -27.8589  -24.3535  -18.3325 N   0  0  0  0  0  0
  -28.8570  -25.0753  -17.8183 C   0  0  0  0  0  0
  -28.4945  -26.3358  -17.6136 N   0  0  0  0  0  0
  -27.1696  -26.3541  -18.0132 N   0  0  0  0  0  0
  -26.7778  -25.1770  -18.4134 N   0  0  0  0  0  0
  -26.8686  -23.6534  -20.8393 O   0  0  0  0  0  0
  -29.3720  -19.1509  -21.7993 S   0  0  0  0  0  0
  -30.0781  -18.4790  -23.3255 C   0  0  0  0  0  0
  -29.5293  -21.7276  -25.6088 C   0  0  0  0  0  0
  -29.5692  -22.9139  -25.2133 O   0  5  0  0  0  0
  -29.5690  -21.3737  -26.8064 O   0  0  0  0  0  0
  -35.4499  -16.2663  -29.9998 H   0  0  0  0  0  0
  -35.5692  -15.5180  -28.3906 H   0  0  0  0  0  0
  -34.5059  -14.8159  -29.6133 H   0  0  0  0  0  0
  -31.5564  -19.9843  -26.0694 H   0  0  0  0  0  0
  -32.0403  -18.6578  -25.0651 H   0  0  0  0  0  0
  -27.3186  -19.1428  -23.0947 H   0  0  0  0  0  0
  -26.0125  -20.7066  -21.8695 H   0  0  0  0  0  0
  -28.1273  -20.8506  -20.1353 H   0  0  0  0  0  0
  -28.7717  -22.4933  -18.5384 H   0  0  0  0  0  0
  -27.0819  -22.4459  -18.0753 H   0  0  0  0  0  0
  -29.8438  -24.6856  -17.6132 H   0  0  0  0  0  0
  -29.4870  -17.6266  -23.6594 H   0  0  0  0  0  0
  -31.0708  -18.1001  -23.0817 H   0  0  0  0  0  0
  1  2  1  0  0  0
  1 30  1  0  0  0
  1 31  1  0  0  0
  1 32  1  0  0  0
  2  6  1  0  0  0
  2  3  2  0  0  0
  3  4  1  0  0  0
  4  5  2  0  0  0
  5  6  1  0  0  0
  5  7  1  0  0  0
  7  8  1  0  0  0
  8  9  1  0  0  0
  8 33  1  0  0  0
  8 34  1  0  0  0
  9 26  1  0  0  0
  9 10  2  0  0  0
 10 11  1  0  0  0
 10 27  1  0  0  0
 11 14  1  0  0  0
 11 12  1  0  0  0
 12 13  1  0  0  0
 12 25  1  0  0  0
 12 35  1  0  0  0
 13 14  1  0  0  0
 13 16  1  0  0  0
 13 36  1  0  0  0
 14 15  2  0  0  0
 16 17  1  0  0  0
 16 37  1  0  0  0
 17 18  1  0  0  0
 17 24  2  0  0  0
 18 19  1  0  0  0
 18 38  1  0  0  0
 18 39  1  0  0  0
 19 23  1  0  0  0
 19 20  1  0  0  0
 20 21  2  0  0  0
 20 40  1  0  0  0
 21 22  1  0  0  0
 22 23  2  0  0  0
 25 26  1  0  0  0
 26 41  1  0  0  0
 26 42  1  0  0  0
 27 28  1  0  0  0
 27 29  2  0  0  0
M  CHG  1  28  -1
M  END
> <s_m_entry_id>
27417

> <s_m_entry_name>
data_maestro.2

> <s_m_Source_Path>
C:\Users\olshana1\Git\GramNeg-Accumulation\Gram Negative Permeation - OmpF

> <s_m_Source_File>
data_maestro.csv

> <i_m_Source_File_Index>
2

> <s_m_job_name>
glide-dock_Nicaido_neutral

> <s_i_glide_gridfile>
3POX-grid

> <i_i_glide_lignum>
2

> <i_i_glide_rotatable_bonds>
8

> <r_i_docking_score>
-5.07435106245092

> <r_i_glide_ligand_efficiency>
-0.174977622843135

> <r_i_glide_ligand_efficiency_sa>
-0.537586694176072

> <r_i_glide_ligand_efficiency_ln>
-1.16189771886065

> <r_i_glide_gscore>
-5.07435106245092

> <r_i_glide_lipo>
-0.158226405090651

> <r_i_glide_hbond>
-0.524710390615005

> <r_i_glide_metal>
0

> <r_i_glide_rewards>
-0.308115049722651

> <r_i_glide_evdw>
-38.0561485290527

> <r_i_glide_ecoul>
-12.9847259521484

> <r_i_glide_erotb>
0.585623573400065

> <r_i_glide_esite>
-0.818406471147777

> <r_i_glide_emodel>
-75.2016117398172

> <r_i_glide_energy>
-51.0408744812012

> <r_i_glide_einternal>
8.14426708221436

> <i_i_glide_confnum>
27

> <i_i_glide_posenum>
240

> <r_i_glide_eff_state_penalty>
0

> <r_glide_res:A132_vdw>
-2.1173025053558

> <r_glide_res:A132_coul>
-34.0316890451874

> <r_glide_res:A132_hbond>
-0.100980921032288

> <r_glide_res:A132_dist>
2.26408532471115

> <r_glide_res:A132_Eint>
-36.2499724715755

> <r_glide_res:A117_vdw>
-4.16837976251551

> <r_glide_res:A117_coul>
22.0311167027999

> <r_glide_res:A117_hbond>
0

> <r_glide_res:A117_dist>
2.27774886833757

> <r_glide_res:A117_Eint>
17.8627369402844

> <r_glide_res:A113_vdw>
-2.83173840600562

> <r_glide_res:A113_coul>
11.4748234757678

> <r_glide_res:A113_hbond>
0

> <r_glide_res:A113_dist>
2.55405330805966

> <r_glide_res:A113_Eint>
8.64308506976222

> <r_glide_res:A82_vdw>
-1.88505772204383

> <r_glide_res:A82_coul>
-40.7128140647054

> <r_glide_res:A82_hbond>
-0.00864269719633305

> <r_glide_res:A82_dist>
2.4672075840026

> <r_glide_res:A82_Eint>
-42.6065144839456

> <r_glide_res:A42_vdw>
1.10268939402769

> <r_glide_res:A42_coul>
-54.3947654758262

> <r_glide_res:A42_hbond>
-0.257904725512768

> <r_glide_res:A42_dist>
1.66411261952941

> <r_glide_res:A42_Eint>
-53.5499808073113

> <r_glide_res:A16_vdw>
4.17783422744166

> <r_glide_res:A16_coul>
-59.3676000011868

> <r_glide_res:A16_hbond>
-0.157182046873616

> <r_glide_res:A16_dist>
1.51436409374723

> <r_glide_res:A16_Eint>
-55.3469478206188

> <s_m_source_file>
ligprep_Nicaido_neutral.maegz

> <i_m_source_file_index>
2

> <i_lp_mmshare_version>
58128

> <i_f3d_flags>
0

> <s_lp_Force_Field>
S-OPLS

> <r_lp_Energy>
37.420105

> <b_lp_Chiralities_Consistent>
1

> <s_lp_Variant>
Cefazolin-1

> <s_epik_input>
W0NIM11jMW5uYyhzMSlTW0NIMl1DKD1DMkMoPU8pW09IXSlbQ0gyXVNbQ0BIXShOMjMpW0NASF0oQzM9TylbTkhdQyg9TylbQ0gyXW40W2NIXW5ubjQ=

> <s_epik_cmdline>
J2VwaWtfcHl0aG9uJywgJy1waHQnLCAnMC4wJywgJy1waCcsICc3LjQnLCAnLW50JywgJy1tYScsICc1MDAnLCAnLWltYWUnLCAnPGluZmlsZS5tYWU+JywgJy1vbWFlJywgJzxvdXRmaWxlLm1hZT4n

> <r_lp_tautomer_probability>
1

> <r_epik_Ionization_Penalty>
  0.0000

> <r_epik_Ionization_Penalty_Charging>
  0.0000

> <r_epik_Ionization_Penalty_Neutral>
  0.0000

> <r_epik_State_Penalty>
  0.0000

> <r_epik_Charging_Adjusted_Penalty>
8.33047029083912e-06

> <i_epik_Tot_Q>
-1

> <i_epik_Tot_abs_Q>
1

> <s_epik_Chemistry_Notes>
This compound contains an acetal/aminal-like group ( X-CH(R)-Y where X, Y are N, S, or O) that may be acid/base labile, releasing an aldehyde.

> <s_m_subgroup_title>
glide-dock_Nicaido_neutral_pv1

> <s_m_subgroupid>
glide-dock_Nicaido_neutral_pv1

> <b_m_subgroup_collapsed>
0

$$$$
SCE-796
                    3D
 Schrodinger Suite 2022-2.
 54 57  0  0  1  0            999 V2000
  -29.1698  -21.4361  -26.6058 O   0  0  0  0  0  0
  -29.0259  -20.6023  -25.7339 C   0  0  0  0  0  0
  -28.8395  -19.0657  -25.6626 C   0  0  2  0  0  0
  -28.8017  -19.2573  -24.1390 C   0  0  2  0  0  0
  -29.0292  -20.6803  -24.3511 N   0  0  0  0  0  0
  -29.2548  -21.6063  -23.3047 C   0  0  0  0  0  0
  -29.1711  -23.1471  -23.6804 C   0  0  0  0  0  0
  -28.7201  -23.9453  -22.8252 O   0  5  0  0  0  0
  -29.5677  -23.4934  -24.8113 O   0  0  0  0  0  0
  -29.6340  -21.1736  -22.0688 C   0  0  0  0  0  0
  -29.6929  -19.6938  -21.6680 C   0  0  0  0  0  0
  -30.0944  -18.6119  -23.0450 S   0  0  0  0  0  0
  -30.0206  -22.0967  -20.9222 C   0  0  0  0  0  0
  -31.4082  -22.6005  -21.0713 N   0  3  0  0  0  0
  -31.6156  -23.9361  -21.2133 C   0  0  0  0  0  0
  -32.9216  -24.4584  -21.3081 C   0  0  0  0  0  0
  -34.0240  -23.5717  -21.2598 C   0  0  0  0  0  0
  -33.7808  -22.1851  -21.1371 C   0  0  0  0  0  0
  -32.4533  -21.7320  -21.0265 C   0  0  0  0  0  0
  -35.4314  -24.0833  -21.3101 C   0  0  0  0  0  0
  -35.6779  -25.1719  -20.5825 N   0  0  0  0  0  0
  -36.3054  -23.4911  -21.9373 O   0  0  0  0  0  0
  -30.0219  -18.3138  -26.0674 N   0  0  0  0  0  0
  -30.4109  -18.0387  -27.3203 C   0  0  0  0  0  0
  -31.7675  -17.2911  -27.4650 C   0  0  2  0  0  0
  -32.7582  -17.6242  -26.3390 C   0  0  0  0  0  0
  -33.2974  -16.5753  -25.5701 C   0  0  0  0  0  0
  -34.1579  -16.8452  -24.4838 C   0  0  0  0  0  0
  -34.5115  -18.1742  -24.1840 C   0  0  0  0  0  0
  -34.0189  -19.2248  -24.9808 C   0  0  0  0  0  0
  -33.1442  -18.9537  -26.0545 C   0  0  0  0  0  0
  -32.4624  -17.6027  -28.8063 C   0  0  0  0  0  0
  -33.1264  -16.6726  -29.3080 O   0  5  0  0  0  0
  -32.3768  -18.7505  -29.3032 O   0  0  0  0  0  0
  -29.7203  -18.3474  -28.2941 O   0  0  0  0  0  0
  -27.8981  -18.6778  -26.0583 H   0  0  0  0  0  0
  -27.8113  -19.0708  -23.7192 H   0  0  0  0  0  0
  -30.4321  -19.5017  -20.8937 H   0  0  0  0  0  0
  -28.7304  -19.3983  -21.2500 H   0  0  0  0  0  0
  -29.3351  -22.9255  -20.7679 H   0  0  0  0  0  0
  -29.9787  -21.5315  -20.0116 H   0  0  0  0  0  0
  -30.7390  -24.5680  -21.2264 H   0  0  0  0  0  0
  -33.0632  -25.5316  -21.3958 H   0  0  0  0  0  0
  -34.5992  -21.4797  -21.0626 H   0  0  0  0  0  0
  -32.2152  -20.6951  -20.8327 H   0  0  0  0  0  0
  -34.9362  -25.5839  -20.0327 H   0  0  0  0  0  0
  -36.6163  -25.5428  -20.5492 H   0  0  0  0  0  0
  -30.6274  -18.0014  -25.3185 H   0  0  0  0  0  0
  -31.5404  -16.2252  -27.4480 H   0  0  0  0  0  0
  -33.0383  -15.5615  -25.8377 H   0  0  0  0  0  0
  -34.5378  -16.0417  -23.8731 H   0  0  0  0  0  0
  -35.1684  -18.3840  -23.3494 H   0  0  0  0  0  0
  -34.3063  -20.2415  -24.7667 H   0  0  0  0  0  0
  -32.7636  -19.7654  -26.6558 H   0  0  0  0  0  0
  1  2  2  0  0  0
  2  5  1  0  0  0
  2  3  1  0  0  0
  3  4  1  0  0  0
  3 23  1  0  0  0
  3 36  1  0  0  0
  4 12  1  0  0  0
  4  5  1  0  0  0
  4 37  1  0  0  0
  5  6  1  0  0  0
  6  7  1  0  0  0
  6 10  2  0  0  0
  7  8  1  0  0  0
  7  9  2  0  0  0
 10 11  1  0  0  0
 10 13  1  0  0  0
 11 12  1  0  0  0
 11 38  1  0  0  0
 11 39  1  0  0  0
 13 14  1  0  0  0
 13 40  1  0  0  0
 13 41  1  0  0  0
 14 19  1  0  0  0
 14 15  2  0  0  0
 15 16  1  0  0  0
 15 42  1  0  0  0
 16 17  2  0  0  0
 16 43  1  0  0  0
 17 18  1  0  0  0
 17 20  1  0  0  0
 18 19  2  0  0  0
 18 44  1  0  0  0
 19 45  1  0  0  0
 20 21  1  0  0  0
 20 22  2  0  0  0
 21 46  1  0  0  0
 21 47  1  0  0  0
 23 24  1  0  0  0
 23 48  1  0  0  0
 24 25  1  0  0  0
 24 35  2  0  0  0
 25 26  1  0  0  0
 25 32  1  0  0  0
 25 49  1  0  0  0
 26 31  1  0  0  0
 26 27  2  0  0  0
 27 28  1  0  0  0
 27 50  1  0  0  0
 28 29  2  0  0  0
 28 51  1  0  0  0
 29 30  1  0  0  0
 29 52  1  0  0  0
 30 31  2  0  0  0
 30 53  1  0  0  0
 31 54  1  0  0  0
 32 33  1  0  0  0
 32 34  2  0  0  0
M  CHG  3   8  -1  14   1  33  -1
M  END
> <s_m_entry_id>
27418

> <s_m_entry_name>
data_maestro.28

> <s_m_Source_Path>
C:\Users\olshana1\Git\GramNeg-Accumulation\Gram Negative Permeation - OmpF

> <s_m_Source_File>
data_maestro.csv

> <i_m_Source_File_Index>
28

> <s_m_job_name>
glide-dock_Nicaido_neutral

> <s_i_glide_gridfile>
3POX-grid

> <i_i_glide_lignum>
35

> <i_i_glide_rotatable_bonds>
9

> <r_i_docking_score>
-5.07411025955923

> <r_i_glide_ligand_efficiency>
-0.144974578844549

> <r_i_glide_ligand_efficiency_sa>
-0.474221460130178

> <r_i_glide_ligand_efficiency_ln>
-1.11387981578299

> <r_i_glide_gscore>
-5.07411025955923

> <r_i_glide_lipo>
0

> <r_i_glide_hbond>
-0.794400892415086

> <r_i_glide_metal>
0

> <r_i_glide_rewards>
-0.0305681789222592

> <r_i_glide_evdw>
-31.2687549591064

> <r_i_glide_ecoul>
-16.8495311737061

> <r_i_glide_erotb>
0.415177540389138

> <r_i_glide_esite>
-0.573451304599796

> <r_i_glide_emodel>
-78.9397293975587

> <r_i_glide_energy>
-48.1182861328125

> <r_i_glide_einternal>
7.02816152572632

> <i_i_glide_confnum>
26

> <i_i_glide_posenum>
349

> <r_i_glide_eff_state_penalty>
0

> <r_glide_res:A132_vdw>
-1.23183202973352

> <r_glide_res:A132_coul>
-14.3997825706112

> <r_glide_res:A132_hbond>
0

> <r_glide_res:A132_dist>
2.84577226096925

> <r_glide_res:A132_Eint>
-15.6316146003447

> <r_glide_res:A117_vdw>
-5.10174844111746

> <r_glide_res:A117_coul>
20.7319264795751

> <r_glide_res:A117_hbond>
0

> <r_glide_res:A117_dist>
2.6504814157088

> <r_glide_res:A117_Eint>
15.6301780384576

> <r_glide_res:A113_vdw>
-3.27395977439603

> <r_glide_res:A113_coul>
-13.9217570600633

> <r_glide_res:A113_hbond>
0

> <r_glide_res:A113_dist>
2.30313257514347

> <r_glide_res:A113_Eint>
-17.1957168344593

> <r_glide_res:A82_vdw>
-0.336632892070797

> <r_glide_res:A82_coul>
-35.6757009475757

> <r_glide_res:A82_hbond>
-0.307589877016846

> <r_glide_res:A82_dist>
2.01757553840787

> <r_glide_res:A82_Eint>
-36.3199237166634

> <r_glide_res:A42_vdw>
-0.579165451739188

> <r_glide_res:A42_coul>
-45.7128207654556

> <r_glide_res:A42_hbond>
-0.240151276622776

> <r_glide_res:A42_dist>
1.83764090096197

> <r_glide_res:A42_Eint>
-46.5321374938175

> <r_glide_res:A16_vdw>
-0.707160245190458

> <r_glide_res:A16_coul>
-69.7670257035352

> <r_glide_res:A16_hbond>
-0.246659738775464

> <r_glide_res:A16_dist>
1.90479541486477

> <r_glide_res:A16_Eint>
-70.7208456875011

> <s_m_source_file>
ligprep_Nicaido_neutral.maegz

> <i_m_source_file_index>
28

> <i_lp_mmshare_version>
58128

> <i_f3d_flags>
0

> <s_lp_Force_Field>
S-OPLS

> <r_lp_Energy>
64.89814

> <b_lp_Chiralities_Consistent>
1

> <s_lp_Variant>
SCE-796-1

> <s_epik_input>
W2NIXTFbY0hdW2NIXVtjSF1bY0hdYzFbQ0BIXShDKD1PKVtPSF0pQyg9TylbTkhdW0NAQEhdMkMoPU8pTihbQ0BASF0yMylDKEMoPU8pW09IXSk9QyhbQ0gyXVMzKVtDSDJdW24rXTRbY0hdW2NIXWMoW2NIXVtjSF00KUMoPU8pW05IMl0=

> <s_epik_cmdline>
J2VwaWtfcHl0aG9uJywgJy1waHQnLCAnMC4wJywgJy1waCcsICc3LjQnLCAnLW50JywgJy1tYScsICc1MDAnLCAnLWltYWUnLCAnPGluZmlsZS5tYWU+JywgJy1vbWFlJywgJzxvdXRmaWxlLm1hZT4n

> <r_lp_tautomer_probability>
1

> <r_epik_Ionization_Penalty>
  0.0010

> <r_epik_Ionization_Penalty_Charging>
  0.0001

> <r_epik_Ionization_Penalty_Neutral>
  0.0010

> <r_epik_State_Penalty>
  0.0000

> <r_epik_Charging_Adjusted_Penalty>
5.79311335039239e-05

> <i_epik_Tot_Q>
-1

> <i_epik_Tot_abs_Q>
3

> <s_epik_Chemistry_Notes>
This compound contains an acetal/aminal-like group ( X-CH(R)-Y where X, Y are N, S, or O) that may be acid/base labile, releasing an aldehyde.

> <s_m_subgroup_title>
glide-dock_Nicaido_neutral_pv1

> <s_m_subgroupid>
glide-dock_Nicaido_neutral_pv1

> <b_m_subgroup_collapsed>
0

$$$$
Cephalosporin C
                    3D
 Schrodinger Suite 2022-2.
 45 46  0  0  1  0            999 V2000
  -18.3622  -24.3494  -15.0397 O   0  0  0  0  0  0
  -18.7715  -23.2217  -14.7523 C   0  0  0  0  0  0
  -19.6687  -22.4981  -15.4490 O   0  0  0  0  0  0
  -20.1597  -22.9575  -16.7027 C   0  0  0  0  0  0
  -21.6704  -22.7672  -16.8367 C   0  0  0  0  0  0
  -22.5111  -23.7434  -17.2749 C   0  0  0  0  0  0
  -23.8953  -23.5270  -17.4414 N   0  0  0  0  0  0
  -24.6083  -22.4219  -16.8231 C   0  0  2  0  0  0
  -25.8850  -22.9118  -17.5389 C   0  0  2  0  0  0
  -25.0130  -24.1075  -18.0175 C   0  0  0  0  0  0
  -25.1725  -25.1497  -18.6174 O   0  0  0  0  0  0
  -26.3926  -21.9969  -18.5641 N   0  0  0  0  0  0
  -27.2999  -22.3326  -19.4982 C   0  0  0  0  0  0
  -28.2165  -21.2046  -19.9858 C   0  0  0  0  0  0
  -28.4891  -21.1715  -21.5033 C   0  0  0  0  0  0
  -27.4323  -20.3942  -22.3124 C   0  0  0  0  0  0
  -27.8513  -20.1184  -23.7810 C   0  0  2  0  0  0
  -27.9269  -21.3858  -24.6606 C   0  0  0  0  0  0
  -28.7334  -21.3803  -25.6165 O   0  5  0  0  0  0
  -27.1675  -22.3495  -24.4133 O   0  0  0  0  0  0
  -26.9340  -19.1496  -24.4127 N   0  3  0  0  0  0
  -27.4719  -23.4883  -19.8977 O   0  0  0  0  0  0
  -23.7240  -20.8863  -17.2134 S   0  0  0  0  0  0
  -22.1397  -21.3602  -16.4625 C   0  0  0  0  0  0
  -21.9765  -25.1491  -17.7176 C   0  0  0  0  0  0
  -21.5690  -25.8977  -16.7989 O   0  5  0  0  0  0
  -22.0221  -25.4119  -18.9387 O   0  0  0  0  0  0
  -18.4764  -22.6640  -13.8635 H   0  0  0  0  0  0
  -19.8656  -23.9879  -16.8929 H   0  0  0  0  0  0
  -19.6804  -22.3629  -17.4806 H   0  0  0  0  0  0
  -24.6674  -22.5637  -15.7411 H   0  0  0  0  0  0
  -26.6592  -23.1495  -16.8135 H   0  0  0  0  0  0
  -26.2980  -21.0141  -18.3475 H   0  0  0  0  0  0
  -27.8617  -20.2333  -19.6364 H   0  0  0  0  0  0
  -29.1688  -21.3634  -19.4785 H   0  0  0  0  0  0
  -29.4574  -20.6914  -21.6488 H   0  0  0  0  0  0
  -28.6048  -22.1819  -21.8971 H   0  0  0  0  0  0
  -26.4730  -20.9117  -22.2667 H   0  0  0  0  0  0
  -27.2709  -19.4333  -21.8207 H   0  0  0  0  0  0
  -28.8362  -19.6487  -23.7716 H   0  0  0  0  0  0
  -27.2568  -18.9364  -25.3450 H   0  0  0  0  0  0
  -26.9131  -18.2962  -23.8666 H   0  0  0  0  0  0
  -22.2237  -21.2960  -15.3769 H   0  0  0  0  0  0
  -21.3937  -20.6278  -16.7713 H   0  0  0  0  0  0
  -26.0044  -19.5385  -24.4622 H   0  0  0  0  0  0
  1  2  2  0  0  0
  2  3  1  0  0  0
  2 28  1  0  0  0
  3  4  1  0  0  0
  4  5  1  0  0  0
  4 29  1  0  0  0
  4 30  1  0  0  0
  5 24  1  0  0  0
  5  6  2  0  0  0
  6  7  1  0  0  0
  6 25  1  0  0  0
  7 10  1  0  0  0
  7  8  1  0  0  0
  8  9  1  0  0  0
  8 23  1  0  0  0
  8 31  1  0  0  0
  9 10  1  0  0  0
  9 12  1  0  0  0
  9 32  1  0  0  0
 10 11  2  0  0  0
 12 13  1  0  0  0
 12 33  1  0  0  0
 13 14  1  0  0  0
 13 22  2  0  0  0
 14 15  1  0  0  0
 14 34  1  0  0  0
 14 35  1  0  0  0
 15 16  1  0  0  0
 15 36  1  0  0  0
 15 37  1  0  0  0
 16 17  1  0  0  0
 16 38  1  0  0  0
 16 39  1  0  0  0
 17 18  1  0  0  0
 17 21  1  0  0  0
 17 40  1  0  0  0
 18 19  1  0  0  0
 18 20  2  0  0  0
 21 41  1  0  0  0
 21 42  1  0  0  0
 21 45  1  0  0  0
 23 24  1  0  0  0
 24 43  1  0  0  0
 24 44  1  0  0  0
 25 26  1  0  0  0
 25 27  2  0  0  0
M  CHG  3  19  -1  21   1  26  -1
M  END
> <s_m_entry_id>
27419

> <s_m_entry_name>
data_maestro.25

> <s_m_Source_Path>
C:\Users\olshana1\Git\GramNeg-Accumulation\Gram Negative Permeation - OmpF

> <s_m_Source_File>
data_maestro.csv

> <i_m_Source_File_Index>
25

> <s_m_job_name>
glide-dock_Nicaido_neutral

> <s_i_glide_gridfile>
3POX-grid

> <i_i_glide_lignum>
32

> <i_i_glide_rotatable_bonds>
11

> <r_i_docking_score>
-5.07210232120454

> <r_i_glide_ligand_efficiency>
-0.187855641526094

> <r_i_glide_ligand_efficiency_sa>
-0.563566923959141

> <r_i_glide_ligand_efficiency_ln>
-1.18070180023438

> <r_i_glide_gscore>
-5.07210232120454

> <r_i_glide_lipo>
0

> <r_i_glide_hbond>
-0.779678067561516

> <r_i_glide_metal>
0

> <r_i_glide_rewards>
-0.50843267131634

> <r_i_glide_evdw>
-25.5449657440186

> <r_i_glide_ecoul>
-19.6966819763184

> <r_i_glide_erotb>
0.97830559423054

> <r_i_glide_esite>
-0.530546592908541

> <r_i_glide_emodel>
-73.4389005144377

> <r_i_glide_energy>
-45.2416477203369

> <r_i_glide_einternal>
8.87632179260254

> <i_i_glide_confnum>
71

> <i_i_glide_posenum>
57

> <r_i_glide_eff_state_penalty>
0

> <r_glide_res:A132_vdw>
-1.87916303694887

> <r_glide_res:A132_coul>
-41.9956136399158

> <r_glide_res:A132_hbond>
-0.0363691665714577

> <r_glide_res:A132_dist>
2.41241243155812

> <r_glide_res:A132_Eint>
-43.9111458434361

> <r_glide_res:A117_vdw>
-1.98110025553779

> <r_glide_res:A117_coul>
-11.9826115072845

> <r_glide_res:A117_hbond>
0

> <r_glide_res:A117_dist>
2.05369794465253

> <r_glide_res:A117_Eint>
-13.9637117628222

> <r_glide_res:A113_vdw>
-1.7238263216004

> <r_glide_res:A113_coul>
13.1831696868672

> <r_glide_res:A113_hbond>
0

> <r_glide_res:A113_dist>
2.41493710666574

> <r_glide_res:A113_Eint>
11.4593433652668

> <r_glide_res:A82_vdw>
-1.01575451780103

> <r_glide_res:A82_coul>
-34.3593353983175

> <r_glide_res:A82_hbond>
0

> <r_glide_res:A82_dist>
3.01151424286011

> <r_glide_res:A82_Eint>
-35.3750899161185

> <r_glide_res:A42_vdw>
0.481257718573541

> <r_glide_res:A42_coul>
-40.1723953366645

> <r_glide_res:A42_hbond>
-0.2

> <r_glide_res:A42_dist>
1.88674838000018

> <r_glide_res:A42_Eint>
-39.8911376180909

> <r_glide_res:A16_vdw>
-0.482906574229968

> <r_glide_res:A16_coul>
-21.6273562994651

> <r_glide_res:A16_hbond>
0

> <r_glide_res:A16_dist>
2.95717521935953

> <r_glide_res:A16_Eint>
-22.1102628736951

> <s_m_source_file>
ligprep_Nicaido_neutral.maegz

> <i_m_source_file_index>
25

> <i_lp_mmshare_version>
58128

> <i_f3d_flags>
0

> <s_lp_Force_Field>
S-OPLS

> <r_lp_Energy>
27.061927

> <b_lp_Chiralities_Consistent>
1

> <s_lp_Variant>
Cephalosporin C-1

> <s_epik_input>
Tz1bQ0hdT1tDSDJdQyg9QzFDKD1PKVtPSF0pW0NIMl1TW0NASF0oTjEyKVtDQEhdKEMyPU8pW05IXUMoPU8pW0NIMl1bQ0gyXVtDSDJdW0NAQEhdKFtOSDJdKUMoPU8pW09IXQ==

> <s_epik_cmdline>
J2VwaWtfcHl0aG9uJywgJy1waHQnLCAnMC4wJywgJy1waCcsICc3LjQnLCAnLW50JywgJy1tYScsICc1MDAnLCAnLWltYWUnLCAnPGluZmlsZS5tYWU+JywgJy1vbWFlJywgJzxvdXRmaWxlLm1hZT4n

> <r_lp_tautomer_probability>
1

> <r_epik_Ionization_Penalty>
  0.0034

> <r_epik_Ionization_Penalty_Charging>
  0.0034

> <r_epik_Ionization_Penalty_Neutral>
  0.0000

> <r_epik_State_Penalty>
  0.0000

> <r_epik_Charging_Adjusted_Penalty>
0.00339038450865705

> <i_epik_Tot_Q>
-1

> <i_epik_Tot_abs_Q>
3

> <s_epik_Chemistry_Notes>
This compound has an ester and may undergo hydrolysis at high or low pH. This compound contains an acetal/aminal-like group ( X-CH(R)-Y where X, Y are N, S, or O) that may be acid/base labile, releasing an aldehyde.

> <s_m_subgroup_title>
glide-dock_Nicaido_neutral_pv1

> <s_m_subgroupid>
glide-dock_Nicaido_neutral_pv1

> <b_m_subgroup_collapsed>
0

$$$$
Ceftriaxone
                    3D
 Schrodinger Suite 2022-2.
 52 55  0  0  1  0            999 V2000
  -23.3465  -23.1329  -16.0423 C   0  0  0  0  0  0
  -23.1209  -23.8919  -17.2671 N   0  0  0  0  0  0
  -23.4611  -23.3212  -18.5259 C   0  0  0  0  0  0
  -24.8074  -22.0580  -18.3934 S   0  0  0  0  0  0
  -25.0192  -21.4127  -20.0937 C   0  0  0  0  0  0
  -26.4923  -21.2512  -20.4885 C   0  0  0  0  0  0
  -27.2260  -22.2670  -21.0127 C   0  0  0  0  0  0
  -28.5982  -22.1757  -21.2982 N   0  0  0  0  0  0
  -29.4289  -21.0938  -20.8133 C   0  0  2  0  0  0
  -30.5888  -21.7196  -21.6192 C   0  0  2  0  0  0
  -29.6444  -22.9407  -21.7826 C   0  0  0  0  0  0
  -29.7112  -24.0906  -22.1702 O   0  0  0  0  0  0
  -30.8654  -21.0382  -22.8848 N   0  0  0  0  0  0
  -31.6222  -21.5730  -23.8616 C   0  0  0  0  0  0
  -31.6971  -20.7556  -25.1563 C   0  0  0  0  0  0
  -30.5262  -19.8812  -25.4565 C   0  0  0  0  0  0
  -30.6913  -18.7352  -26.2029 C   0  0  0  0  0  0
  -29.1827  -17.9487  -26.5490 S   0  0  0  0  0  0
  -28.3672  -19.1802  -25.6119 C   0  0  0  0  0  0
  -27.0006  -19.1497  -25.4249 N   0  0  0  0  0  0
  -29.1788  -20.1307  -25.1483 N   0  0  0  0  0  0
  -32.6520  -20.7816  -26.0099 N   0  0  0  0  0  0
  -33.7331  -21.6042  -25.6664 O   0  0  0  0  0  0
  -34.7461  -21.4251  -26.6392 C   0  0  0  0  0  0
  -32.1898  -22.6601  -23.7397 O   0  0  0  0  0  0
  -28.5804  -19.5417  -21.2132 S   0  0  0  0  0  0
  -27.0936  -19.8721  -20.2158 C   0  0  0  0  0  0
  -26.5943  -23.6215  -21.3753 C   0  0  0  0  0  0
  -26.6144  -23.9493  -22.5848 O   0  5  0  0  0  0
  -26.2484  -24.3456  -20.4135 O   0  0  0  0  0  0
  -22.8785  -23.6434  -19.6470 N   0  0  0  0  0  0
  -21.8819  -24.6204  -19.6375 C   0  0  0  0  0  0
  -21.6107  -25.3944  -18.3037 C   0  0  0  0  0  0
  -20.7405  -26.2696  -18.3367 O   0  0  0  0  0  0
  -22.3669  -25.1033  -17.2122 N   0  5  0  0  0  0
  -21.2264  -24.9325  -20.6329 O   0  0  0  0  0  0
  -24.3997  -23.1504  -15.7594 H   0  0  0  0  0  0
  -22.7682  -23.5482  -15.2184 H   0  0  0  0  0  0
  -23.0370  -22.0937  -16.1587 H   0  0  0  0  0  0
  -24.5136  -22.0516  -20.8144 H   0  0  0  0  0  0
  -24.5088  -20.4523  -20.1643 H   0  0  0  0  0  0
  -29.5610  -21.1899  -19.7374 H   0  0  0  0  0  0
  -31.4717  -21.8892  -21.0008 H   0  0  0  0  0  0
  -30.3874  -20.1601  -23.0382 H   0  0  0  0  0  0
  -31.6088  -18.3042  -26.5775 H   0  0  0  0  0  0
  -26.6373  -19.5903  -24.5925 H   0  0  0  0  0  0
  -26.5519  -18.2526  -25.6144 H   0  0  0  0  0  0
  -35.6017  -22.0528  -26.3915 H   0  0  0  0  0  0
  -35.0891  -20.3898  -26.6684 H   0  0  0  0  0  0
  -34.4000  -21.7099  -27.6339 H   0  0  0  0  0  0
  -27.3452  -19.8018  -19.1589 H   0  0  0  0  0  0
  -26.3681  -19.0887  -20.4325 H   0  0  0  0  0  0
  1  2  1  0  0  0
  1 37  1  0  0  0
  1 38  1  0  0  0
  1 39  1  0  0  0
  2 35  1  0  0  0
  2  3  1  0  0  0
  3  4  1  0  0  0
  3 31  2  0  0  0
  4  5  1  0  0  0
  5  6  1  0  0  0
  5 40  1  0  0  0
  5 41  1  0  0  0
  6 27  1  0  0  0
  6  7  2  0  0  0
  7  8  1  0  0  0
  7 28  1  0  0  0
  8 11  1  0  0  0
  8  9  1  0  0  0
  9 10  1  0  0  0
  9 26  1  0  0  0
  9 42  1  0  0  0
 10 11  1  0  0  0
 10 13  1  0  0  0
 10 43  1  0  0  0
 11 12  2  0  0  0
 13 14  1  0  0  0
 13 44  1  0  0  0
 14 15  1  0  0  0
 14 25  2  0  0  0
 15 16  1  0  0  0
 15 22  2  3  0  0
 16 21  1  0  0  0
 16 17  2  0  0  0
 17 18  1  0  0  0
 17 45  1  0  0  0
 18 19  1  0  0  0
 19 20  1  0  0  0
 19 21  2  0  0  0
 20 46  1  0  0  0
 20 47  1  0  0  0
 22 23  1  0  0  0
 23 24  1  0  0  0
 24 48  1  0  0  0
 24 49  1  0  0  0
 24 50  1  0  0  0
 26 27  1  0  0  0
 27 51  1  0  0  0
 27 52  1  0  0  0
 28 29  1  0  0  0
 28 30  2  0  0  0
 31 32  1  0  0  0
 32 33  1  0  0  0
 32 36  2  0  0  0
 33 34  2  0  0  0
 33 35  1  0  0  0
M  CHG  2  29  -1  35  -1
M  END
> <s_m_entry_id>
27420

> <s_m_entry_name>
data_maestro.22

> <s_m_Source_Path>
C:\Users\olshana1\Git\GramNeg-Accumulation\Gram Negative Permeation - OmpF

> <s_m_Source_File>
data_maestro.csv

> <i_m_Source_File_Index>
22

> <s_m_job_name>
glide-dock_Nicaido_neutral

> <s_i_glide_gridfile>
3POX-grid

> <i_i_glide_lignum>
29

> <i_i_glide_rotatable_bonds>
9

> <r_i_docking_score>
-5.07027589467811

> <r_i_glide_ligand_efficiency>
-0.140840997074392

> <r_i_glide_ligand_efficiency_sa>
-0.465046725445922

> <r_i_glide_ligand_efficiency_ln>
-1.10619721719443

> <r_i_glide_gscore>
-5.07027589467811

> <r_i_glide_lipo>
0

> <r_i_glide_hbond>
-0.959782123608465

> <r_i_glide_metal>
0

> <r_i_glide_rewards>
0.000276701550216367

> <r_i_glide_evdw>
-30.9119815826416

> <r_i_glide_ecoul>
-15.8690814971924

> <r_i_glide_erotb>
0.472124986767549

> <r_i_glide_esite>
-0.656934155676472

> <r_i_glide_emodel>
-79.9490881778596

> <r_i_glide_energy>
-46.781063079834

> <r_i_glide_einternal>
5.91743946075439

> <i_i_glide_confnum>
29

> <i_i_glide_posenum>
221

> <r_i_glide_eff_state_penalty>
0

> <r_glide_res:A132_vdw>
6.23026371588225

> <r_glide_res:A132_coul>
-79.3864945054349

> <r_glide_res:A132_hbond>
-0.172503025904193

> <r_glide_res:A132_dist>
1.49362436775409

> <r_glide_res:A132_Eint>
-73.3287338154568

> <r_glide_res:A117_vdw>
-3.88337925669391

> <r_glide_res:A117_coul>
27.1798204564538

> <r_glide_res:A117_hbond>
-0.1943554354075

> <r_glide_res:A117_dist>
2.10825763404327

> <r_glide_res:A117_Eint>
23.1020857643524

> <r_glide_res:A113_vdw>
-1.71341882960584

> <r_glide_res:A113_coul>
32.6592064211937

> <r_glide_res:A113_hbond>
0

> <r_glide_res:A113_dist>
2.15530776317555

> <r_glide_res:A113_Eint>
30.9457875915879

> <r_glide_res:A82_vdw>
-0.187918218530618

> <r_glide_res:A82_coul>
-69.353602220417

> <r_glide_res:A82_hbond>
-0.359029163129113

> <r_glide_res:A82_dist>
1.78303210492998

> <r_glide_res:A82_Eint>
-69.9005496020768

> <r_glide_res:A42_vdw>
-1.43075525429384

> <r_glide_res:A42_coul>
-47.1626367189534

> <r_glide_res:A42_hbond>
0

> <r_glide_res:A42_dist>
3.69643882181288

> <r_glide_res:A42_Eint>
-48.5933919732473

> <r_glide_res:A16_vdw>
-1.92735240014706

> <r_glide_res:A16_coul>
-31.7532127354622

> <r_glide_res:A16_hbond>
0

> <r_glide_res:A16_dist>
2.95068093878547

> <r_glide_res:A16_Eint>
-33.6805651356093

> <s_m_source_file>
ligprep_Nicaido_neutral.maegz

> <i_m_source_file_index>
22

> <i_lp_mmshare_version>
58128

> <i_f3d_flags>
0

> <s_lp_Force_Field>
S-OPLS

> <r_lp_Energy>
111.196812

> <b_lp_Chiralities_Consistent>
1

> <s_lp_Variant>
Ceftriaxone-2

> <s_epik_input>
W09IXWMobjEpYyg9TyluYyhuMVtDSDNdKVNbQ0gyXUMoPUMyQyg9TylbT0hdKVtDSDJdU1tDQEhdKE4yMylbQ0BIXShDMz1PKVtOSF1DKD1PKS9DKD1OL09bQ0gzXSljNFtjSF1zYyhuNClbTkgyXQ==

> <s_epik_cmdline>
J2VwaWtfcHl0aG9uJywgJy1waHQnLCAnMC4wJywgJy1waCcsICc3LjQnLCAnLW50JywgJy1tYScsICc1MDAnLCAnLWltYWUnLCAnPGluZmlsZS5tYWU+JywgJy1vbWFlJywgJzxvdXRmaWxlLm1hZT4n

> <r_lp_tautomer_probability>
1

> <r_epik_Ionization_Penalty>
  0.0014

> <r_epik_Ionization_Penalty_Charging>
  0.0010

> <r_epik_Ionization_Penalty_Neutral>
  0.0004

> <r_epik_State_Penalty>
  0.0000

> <r_epik_Charging_Adjusted_Penalty>
0.000994184415634904

> <i_epik_Tot_Q>
-2

> <i_epik_Tot_abs_Q>
2

> <s_epik_Chemistry_Notes>
This compound has an imine and may undergo hydrolysis. This compound contains an acetal/aminal-like group ( X-CH(R)-Y where X, Y are N, S, or O) that may be acid/base labile, releasing an aldehyde.

> <s_m_subgroup_title>
glide-dock_Nicaido_neutral_pv1

> <s_m_subgroupid>
glide-dock_Nicaido_neutral_pv1

> <b_m_subgroup_collapsed>
0

$$$$
Nocardicin B
                    3D
 Schrodinger Suite 2022-2.
 59 61  0  0  1  0            999 V2000
  -37.3402  -26.8416  -25.6321 O   0  0  0  0  0  0
  -36.5809  -27.4975  -24.9536 C   0  0  0  0  0  0
  -35.1555  -27.3340  -24.4148 C   0  0  2  0  0  0
  -35.3690  -28.6958  -23.7676 C   0  0  0  0  0  0
  -36.7316  -28.7084  -24.3218 N   0  0  0  0  0  0
  -37.8945  -29.5873  -24.1540 C   0  0  2  0  0  0
  -37.5756  -30.6447  -23.1348 C   0  0  0  0  0  0
  -38.3427  -30.7346  -21.9475 C   0  0  0  0  0  0
  -37.9628  -31.5778  -20.8847 C   0  0  0  0  0  0
  -36.7953  -32.3558  -20.9864 C   0  0  0  0  0  0
  -36.0588  -32.3459  -22.1829 C   0  0  0  0  0  0
  -36.4601  -31.5131  -23.2436 C   0  0  0  0  0  0
  -36.3695  -33.0925  -19.9211 O   0  0  0  0  0  0
  -38.3575  -30.2660  -25.4619 C   0  0  0  0  0  0
  -39.5524  -30.6235  -25.5535 O   0  5  0  0  0  0
  -37.5481  -30.3487  -26.4130 O   0  0  0  0  0  0
  -35.0649  -26.2994  -23.3948 N   0  0  0  0  0  0
  -33.9669  -25.6286  -23.0351 C   0  0  0  0  0  0
  -34.1827  -24.6495  -21.8747 C   0  0  0  0  0  0
  -33.1266  -23.6198  -21.8344 C   0  0  0  0  0  0
  -31.8679  -23.8975  -21.2585 C   0  0  0  0  0  0
  -30.8438  -22.9329  -21.2949 C   0  0  0  0  0  0
  -31.0665  -21.6784  -21.9118 C   0  0  0  0  0  0
  -32.3417  -21.3828  -22.4282 C   0  0  0  0  0  0
  -33.3653  -22.3467  -22.3944 C   0  0  0  0  0  0
  -30.0914  -20.7208  -22.0521 O   0  0  0  0  0  0
  -28.7538  -21.1845  -22.1493 C   0  0  0  0  0  0
  -27.9377  -20.1627  -22.9531 C   0  0  0  0  0  0
  -28.5396  -19.7760  -24.3316 C   0  0  2  0  0  0
  -28.7115  -20.9476  -25.3225 C   0  0  0  0  0  0
  -29.5694  -20.8231  -26.2274 O   0  5  0  0  0  0
  -27.9692  -21.9485  -25.2070 O   0  0  0  0  0  0
  -27.6977  -18.7498  -24.9661 N   0  3  0  0  0  0
  -35.1153  -24.5839  -20.9988 N   0  0  0  0  0  0
  -36.0548  -25.6592  -21.0736 O   0  0  0  0  0  0
  -32.8759  -25.7645  -23.5999 O   0  0  0  0  0  0
  -34.3641  -27.3334  -25.1640 H   0  0  0  0  0  0
  -34.7145  -29.4653  -24.1783 H   0  0  0  0  0  0
  -35.3341  -28.6935  -22.6764 H   0  0  0  0  0  0
  -38.7189  -28.9627  -23.8077 H   0  0  0  0  0  0
  -39.2141  -30.1055  -21.8241 H   0  0  0  0  0  0
  -38.5485  -31.5987  -19.9755 H   0  0  0  0  0  0
  -35.1720  -32.9551  -22.2890 H   0  0  0  0  0  0
  -35.8594  -31.4963  -24.1409 H   0  0  0  0  0  0
  -35.4720  -33.4066  -20.0096 H   0  0  0  0  0  0
  -35.8884  -26.1291  -22.8261 H   0  0  0  0  0  0
  -31.6826  -24.8589  -20.7993 H   0  0  0  0  0  0
  -29.8918  -23.1665  -20.8434 H   0  0  0  0  0  0
  -32.5259  -20.4189  -22.8797 H   0  0  0  0  0  0
  -34.3301  -22.1119  -22.8202 H   0  0  0  0  0  0
  -28.6997  -22.1574  -22.6383 H   0  0  0  0  0  0
  -28.3348  -21.2980  -21.1475 H   0  0  0  0  0  0
  -26.9206  -20.5355  -23.0749 H   0  0  0  0  0  0
  -27.8492  -19.2581  -22.3490 H   0  0  0  0  0  0
  -29.5190  -19.3252  -24.1656 H   0  0  0  0  0  0
  -28.1450  -18.4169  -25.8076 H   0  0  0  0  0  0
  -27.5699  -17.9751  -24.3259 H   0  0  0  0  0  0
  -36.5534  -25.5351  -20.2777 H   0  0  0  0  0  0
  -26.7949  -19.1346  -25.1999 H   0  0  0  0  0  0
  1  2  2  0  0  0
  2  5  1  0  0  0
  2  3  1  0  0  0
  3  4  1  0  0  0
  3 17  1  0  0  0
  3 37  1  0  0  0
  4  5  1  0  0  0
  4 38  1  0  0  0
  4 39  1  0  0  0
  5  6  1  0  0  0
  6  7  1  0  0  0
  6 14  1  0  0  0
  6 40  1  0  0  0
  7 12  1  0  0  0
  7  8  2  0  0  0
  8  9  1  0  0  0
  8 41  1  0  0  0
  9 10  2  0  0  0
  9 42  1  0  0  0
 10 11  1  0  0  0
 10 13  1  0  0  0
 11 12  2  0  0  0
 11 43  1  0  0  0
 12 44  1  0  0  0
 13 45  1  0  0  0
 14 15  1  0  0  0
 14 16  2  0  0  0
 17 18  1  0  0  0
 17 46  1  0  0  0
 18 19  1  0  0  0
 18 36  2  0  0  0
 19 20  1  0  0  0
 19 34  2  3  0  0
 20 25  1  0  0  0
 20 21  2  0  0  0
 21 22  1  0  0  0
 21 47  1  0  0  0
 22 23  2  0  0  0
 22 48  1  0  0  0
 23 24  1  0  0  0
 23 26  1  0  0  0
 24 25  2  0  0  0
 24 49  1  0  0  0
 25 50  1  0  0  0
 26 27  1  0  0  0
 27 28  1  0  0  0
 27 51  1  0  0  0
 27 52  1  0  0  0
 28 29  1  0  0  0
 28 53  1  0  0  0
 28 54  1  0  0  0
 29 30  1  0  0  0
 29 33  1  0  0  0
 29 55  1  0  0  0
 30 31  1  0  0  0
 30 32  2  0  0  0
 33 56  1  0  0  0
 33 57  1  0  0  0
 33 59  1  0  0  0
 34 35  1  0  0  0
 35 58  1  0  0  0
M  CHG  3  15  -1  31  -1  33   1
M  END
> <s_m_entry_id>
27421

> <s_m_entry_name>
data_maestro.29

> <s_m_Source_Path>
C:\Users\olshana1\Git\GramNeg-Accumulation\Gram Negative Permeation - OmpF

> <s_m_Source_File>
data_maestro.csv

> <i_m_Source_File_Index>
29

> <s_m_job_name>
glide-dock_Nicaido_neutral

> <s_i_glide_gridfile>
3POX-grid

> <i_i_glide_lignum>
37

> <i_i_glide_rotatable_bonds>
14

> <r_i_docking_score>
-5.06921507629054

> <r_i_glide_ligand_efficiency>
-0.140811529896959

> <r_i_glide_ligand_efficiency_sa>
-0.464949426969925

> <r_i_glide_ligand_efficiency_ln>
-1.10596577528226

> <r_i_glide_gscore>
-5.06921507629054

> <r_i_glide_lipo>
-0.600765440296949

> <r_i_glide_hbond>
-1.0587174326238

> <r_i_glide_metal>
0

> <r_i_glide_rewards>
0.112920129648531

> <r_i_glide_evdw>
-24.5557250976563

> <r_i_glide_ecoul>
-19.2485980987549

> <r_i_glide_erotb>
0.900147327125679

> <r_i_glide_esite>
-0.307723690447958

> <r_i_glide_emodel>
-68.1667832230531

> <r_i_glide_energy>
-43.8043231964111

> <r_i_glide_einternal>
11.5414896011353

> <i_i_glide_confnum>
765

> <i_i_glide_posenum>
359

> <r_i_glide_eff_state_penalty>
0

> <r_glide_res:A132_vdw>
-0.780886220336261

> <r_glide_res:A132_coul>
-15.9190120460669

> <r_glide_res:A132_hbond>
0

> <r_glide_res:A132_dist>
3.04744807732537

> <r_glide_res:A132_Eint>
-16.6998982664031

> <r_glide_res:A117_vdw>
-2.05567801426918

> <r_glide_res:A117_coul>
-16.479989468289

> <r_glide_res:A117_hbond>
0

> <r_glide_res:A117_dist>
2.16957923970583

> <r_glide_res:A117_Eint>
-18.5356674825582

> <r_glide_res:A113_vdw>
-2.85033818053958

> <r_glide_res:A113_coul>
13.5829747288859

> <r_glide_res:A113_hbond>
0

> <r_glide_res:A113_dist>
3.23565165490844

> <r_glide_res:A113_Eint>
10.7326365483463

> <r_glide_res:A82_vdw>
-1.47151540099627

> <r_glide_res:A82_coul>
-26.7539265903057

> <r_glide_res:A82_hbond>
0

> <r_glide_res:A82_dist>
3.08099960844777

> <r_glide_res:A82_Eint>
-28.225441991302

> <r_glide_res:A42_vdw>
1.02618450902652

> <r_glide_res:A42_coul>
-37.5929003549589

> <r_glide_res:A42_hbond>
-0.210502805343265

> <r_glide_res:A42_dist>
1.81002795074066

> <r_glide_res:A42_Eint>
-36.7772186512757

> <r_glide_res:A16_vdw>
-0.363892915865393

> <r_glide_res:A16_coul>
-32.2408853628734

> <r_glide_res:A16_hbond>
-0.2

> <r_glide_res:A16_dist>
2.05360215441939

> <r_glide_res:A16_Eint>
-32.8047782787388

> <s_m_source_file>
ligprep_Nicaido_neutral.maegz

> <i_m_source_file_index>
29

> <i_lp_mmshare_version>
58128

> <i_f3d_flags>
0

> <s_lp_Force_Field>
S-OPLS

> <r_lp_Energy>
65.715273

> <b_lp_Chiralities_Consistent>
1

> <s_lp_Variant>
Nocardicin B-2

> <s_epik_input>
W2NIXTFbY0hdYyhbT0hdKVtjSF1bY0hdYzFbQ0BIXShDKD1PKVtPSF0pTjJbQ0gyXVtDQEBIXShDMj1PKVtOSF1DKD1PKS9DKD1OL1tPSF0pYzNbY0hdW2NIXWMoW2NIXVtjSF0zKU9bQ0gyXVtDSDJdW0NAQEhdKFtOSDJdKUMoPU8pW09IXQ==

> <s_epik_cmdline>
J2VwaWtfcHl0aG9uJywgJy1waHQnLCAnMC4wJywgJy1waCcsICc3LjQnLCAnLW50JywgJy1tYScsICc1MDAnLCAnLWltYWUnLCAnPGluZmlsZS5tYWU+JywgJy1vbWFlJywgJzxvdXRmaWxlLm1hZT4n

> <r_lp_tautomer_probability>
1

> <r_epik_Ionization_Penalty>
  0.0116

> <r_epik_Ionization_Penalty_Charging>
  0.0086

> <r_epik_Ionization_Penalty_Neutral>
  0.0030

> <r_epik_State_Penalty>
  0.0000

> <r_epik_Charging_Adjusted_Penalty>
0.0085560600321308

> <i_epik_Tot_Q>
-1

> <i_epik_Tot_abs_Q>
3

> <s_epik_Chemistry_Notes>
This compound has an imine and may undergo hydrolysis.

> <s_m_subgroup_title>
glide-dock_Nicaido_neutral_pv1

> <s_m_subgroupid>
glide-dock_Nicaido_neutral_pv1

> <b_m_subgroup_collapsed>
0

$$$$
Ceftriaxone
                    3D
 Schrodinger Suite 2022-2.
 52 55  0  0  1  0            999 V2000
  -20.8854  -24.2082  -22.1071 C   0  0  0  0  0  0
  -21.9781  -23.7638  -22.9617 N   0  0  0  0  0  0
  -22.1530  -22.3888  -23.2830 C   0  0  0  0  0  0
  -21.3027  -21.2143  -22.1631 S   0  0  0  0  0  0
  -22.1575  -21.4007  -20.5625 C   0  0  0  0  0  0
  -23.6883  -21.3446  -20.6243 C   0  0  0  0  0  0
  -24.5101  -22.3517  -20.2087 C   0  0  0  0  0  0
  -25.9173  -22.2578  -20.2912 N   0  0  0  0  0  0
  -26.6220  -20.9938  -20.4037 C   0  0  2  0  0  0
  -27.9332  -21.7995  -20.5187 C   0  0  2  0  0  0
  -27.0619  -23.0221  -20.1233 C   0  0  0  0  0  0
  -27.2456  -24.1744  -19.7941 O   0  0  0  0  0  0
  -28.4729  -21.7476  -21.8856 N   0  0  0  0  0  0
  -28.9192  -22.7425  -22.6778 C   0  0  0  0  0  0
  -29.5828  -22.2755  -23.9710 C   0  0  0  0  0  0
  -29.7269  -20.8015  -24.1841 C   0  0  0  0  0  0
  -30.5000  -20.0169  -23.3553 C   0  0  0  0  0  0
  -30.5543  -18.3562  -23.8830 S   0  0  0  0  0  0
  -29.5348  -18.7991  -25.2416 C   0  0  0  0  0  0
  -29.1690  -17.8724  -26.1973 N   0  0  0  0  0  0
  -29.1680  -20.0816  -25.2509 N   0  0  0  0  0  0
  -29.9813  -23.1496  -24.8121 N   0  0  0  0  0  0
  -30.6006  -22.6013  -25.9472 O   0  0  0  0  0  0
  -31.5934  -23.5191  -26.3765 C   0  0  0  0  0  0
  -28.8229  -23.9480  -22.4152 O   0  0  0  0  0  0
  -25.9024  -20.0603  -21.7861 S   0  0  0  0  0  0
  -24.2092  -20.0029  -21.1500 C   0  0  0  0  0  0
  -23.9624  -23.7265  -19.6764 C   0  0  0  0  0  0
  -24.3689  -24.7491  -20.2657 O   0  5  0  0  0  0
  -23.1873  -23.6909  -18.6956 O   0  0  0  0  0  0
  -22.8177  -21.9520  -24.3120 N   0  0  0  0  0  0
  -23.4671  -22.8685  -25.1302 C   0  0  0  0  0  0
  -23.5666  -24.3489  -24.6369 C   0  0  0  0  0  0
  -24.3630  -25.0879  -25.2182 O   0  0  0  0  0  0
  -22.7692  -24.7496  -23.6132 N   0  5  0  0  0  0
  -23.9687  -22.5772  -26.2143 O   0  0  0  0  0  0
  -21.1702  -24.1531  -21.0565 H   0  0  0  0  0  0
  -20.6360  -25.2487  -22.3179 H   0  0  0  0  0  0
  -19.9788  -23.6218  -22.2615 H   0  0  0  0  0  0
  -21.8244  -20.5905  -19.9149 H   0  0  0  0  0  0
  -21.7714  -22.3017  -20.1009 H   0  0  0  0  0  0
  -26.5581  -20.4266  -19.4723 H   0  0  0  0  0  0
  -28.6612  -21.5017  -19.7617 H   0  0  0  0  0  0
  -28.5717  -20.8053  -22.2403 H   0  0  0  0  0  0
  -31.0471  -20.3083  -22.4679 H   0  0  0  0  0  0
  -28.1776  -17.8472  -26.4131 H   0  0  0  0  0  0
  -29.4896  -16.9257  -26.0266 H   0  0  0  0  0  0
  -32.0770  -23.1510  -27.2806 H   0  0  0  0  0  0
  -31.1720  -24.5005  -26.5982 H   0  0  0  0  0  0
  -32.3676  -23.6385  -25.6159 H   0  0  0  0  0  0
  -24.1556  -19.2704  -20.3447 H   0  0  0  0  0  0
  -23.5815  -19.6272  -21.9574 H   0  0  0  0  0  0
  1  2  1  0  0  0
  1 37  1  0  0  0
  1 38  1  0  0  0
  1 39  1  0  0  0
  2 35  1  0  0  0
  2  3  1  0  0  0
  3  4  1  0  0  0
  3 31  2  0  0  0
  4  5  1  0  0  0
  5  6  1  0  0  0
  5 40  1  0  0  0
  5 41  1  0  0  0
  6 27  1  0  0  0
  6  7  2  0  0  0
  7  8  1  0  0  0
  7 28  1  0  0  0
  8 11  1  0  0  0
  8  9  1  0  0  0
  9 10  1  0  0  0
  9 26  1  0  0  0
  9 42  1  0  0  0
 10 11  1  0  0  0
 10 13  1  0  0  0
 10 43  1  0  0  0
 11 12  2  0  0  0
 13 14  1  0  0  0
 13 44  1  0  0  0
 14 15  1  0  0  0
 14 25  2  0  0  0
 15 16  1  0  0  0
 15 22  2  3  0  0
 16 21  1  0  0  0
 16 17  2  0  0  0
 17 18  1  0  0  0
 17 45  1  0  0  0
 18 19  1  0  0  0
 19 20  1  0  0  0
 19 21  2  0  0  0
 20 46  1  0  0  0
 20 47  1  0  0  0
 22 23  1  0  0  0
 23 24  1  0  0  0
 24 48  1  0  0  0
 24 49  1  0  0  0
 24 50  1  0  0  0
 26 27  1  0  0  0
 27 51  1  0  0  0
 27 52  1  0  0  0
 28 29  1  0  0  0
 28 30  2  0  0  0
 31 32  1  0  0  0
 32 33  1  0  0  0
 32 36  2  0  0  0
 33 34  2  0  0  0
 33 35  1  0  0  0
M  CHG  2  29  -1  35  -1
M  END
> <s_m_entry_id>
27422

> <s_m_entry_name>
data_maestro.22

> <s_m_Source_Path>
C:\Users\olshana1\Git\GramNeg-Accumulation\Gram Negative Permeation - OmpF

> <s_m_Source_File>
data_maestro.csv

> <i_m_Source_File_Index>
22

> <s_m_job_name>
glide-dock_Nicaido_neutral

> <s_i_glide_gridfile>
3POX-grid

> <i_i_glide_lignum>
28

> <i_i_glide_rotatable_bonds>
9

> <r_i_docking_score>
-5.06610595496013

> <r_i_glide_ligand_efficiency>
-0.140725165415559

> <r_i_glide_ligand_efficiency_sa>
-0.464664257735794

> <r_i_glide_ligand_efficiency_ln>
-1.10528744900672

> <r_i_glide_gscore>
-5.06610595496013

> <r_i_glide_lipo>
0

> <r_i_glide_hbond>
-1.02472390570181

> <r_i_glide_metal>
0

> <r_i_glide_rewards>
0.236491195385464

> <r_i_glide_evdw>
-31.238109588623

> <r_i_glide_ecoul>
-15.8081750869751

> <r_i_glide_erotb>
0.472124986767549

> <r_i_glide_esite>
-0.816866488933922

> <r_i_glide_emodel>
-73.2757755411473

> <r_i_glide_energy>
-47.0462846755981

> <r_i_glide_einternal>
16.4461231231689

> <i_i_glide_confnum>
313

> <i_i_glide_posenum>
339

> <r_i_glide_eff_state_penalty>
0

> <r_glide_res:A132_vdw>
0.297508152335921

> <r_glide_res:A132_coul>
-80.0270585959319

> <r_glide_res:A132_hbond>
-0.319081335062177

> <r_glide_res:A132_dist>
1.9463289906824

> <r_glide_res:A132_Eint>
-80.0486317786582

> <r_glide_res:A117_vdw>
-4.40111783313534

> <r_glide_res:A117_coul>
35.6321932262137

> <r_glide_res:A117_hbond>
-0.0692500785920171

> <r_glide_res:A117_dist>
2.13194975846288

> <r_glide_res:A117_Eint>
31.1618253144863

> <r_glide_res:A113_vdw>
-2.08841442890445

> <r_glide_res:A113_coul>
28.1908557180364

> <r_glide_res:A113_hbond>
0

> <r_glide_res:A113_dist>
2.96800064058956

> <r_glide_res:A113_Eint>
26.1024412891319

> <r_glide_res:A82_vdw>
-3.29948094764175

> <r_glide_res:A82_coul>
-69.3640529220414

> <r_glide_res:A82_hbond>
-0.24534148862372

> <r_glide_res:A82_dist>
2.16026748050267

> <r_glide_res:A82_Eint>
-72.9088753583068

> <r_glide_res:A42_vdw>
-1.08800306372846

> <r_glide_res:A42_coul>
-60.7083708992264

> <r_glide_res:A42_hbond>
-0.093859603735052

> <r_glide_res:A42_dist>
2.04449685566431

> <r_glide_res:A42_Eint>
-61.8902335666899

> <r_glide_res:A16_vdw>
-1.61662016920665

> <r_glide_res:A16_coul>
-39.7846732668726

> <r_glide_res:A16_hbond>
0

> <r_glide_res:A16_dist>
2.59797625680562

> <r_glide_res:A16_Eint>
-41.4012934360793

> <s_m_source_file>
ligprep_Nicaido_neutral.maegz

> <i_m_source_file_index>
22

> <i_lp_mmshare_version>
58128

> <i_f3d_flags>
0

> <s_lp_Force_Field>
S-OPLS

> <r_lp_Energy>
109.903222

> <b_lp_Chiralities_Consistent>
1

> <s_lp_Variant>
Ceftriaxone-1

> <s_epik_input>
W09IXWMobjEpYyg9TyluYyhuMVtDSDNdKVNbQ0gyXUMoPUMyQyg9TylbT0hdKVtDSDJdU1tDQEhdKE4yMylbQ0BIXShDMz1PKVtOSF1DKD1PKS9DKD1OL09bQ0gzXSljNFtjSF1zYyhuNClbTkgyXQ==

> <s_epik_cmdline>
J2VwaWtfcHl0aG9uJywgJy1waHQnLCAnMC4wJywgJy1waCcsICc3LjQnLCAnLW50JywgJy1tYScsICc1MDAnLCAnLWltYWUnLCAnPGluZmlsZS5tYWU+JywgJy1vbWFlJywgJzxvdXRmaWxlLm1hZT4n

> <r_lp_tautomer_probability>
1

> <r_epik_Ionization_Penalty>
  0.0014

> <r_epik_Ionization_Penalty_Charging>
  0.0010

> <r_epik_Ionization_Penalty_Neutral>
  0.0004

> <r_epik_State_Penalty>
  0.0000

> <r_epik_Charging_Adjusted_Penalty>
0.000994184415634904

> <i_epik_Tot_Q>
-2

> <i_epik_Tot_abs_Q>
2

> <s_epik_Chemistry_Notes>
This compound has an imine and may undergo hydrolysis. This compound contains an acetal/aminal-like group ( X-CH(R)-Y where X, Y are N, S, or O) that may be acid/base labile, releasing an aldehyde.

> <s_m_subgroup_title>
glide-dock_Nicaido_neutral_pv1

> <s_m_subgroupid>
glide-dock_Nicaido_neutral_pv1

> <b_m_subgroup_collapsed>
0

$$$$
Aztreonam
                    3D
 Schrodinger Suite 2022-2.
 43 44  0  0  1  0            999 V2000
  -23.7885  -21.3793  -17.9580 C   0  0  0  0  0  0
  -24.5427  -22.5323  -17.2698 C   0  0  1  0  0  0
  -25.7893  -23.1847  -17.9281 C   0  0  2  0  0  0
  -24.8050  -24.2784  -18.3763 C   0  0  0  0  0  0
  -23.8906  -23.8300  -17.4536 N   0  0  0  0  0  0
  -22.2728  -24.1152  -17.1435 S   0  0  0  0  0  0
  -21.5902  -23.7701  -18.3987 O   0  0  0  0  0  0
  -22.2033  -25.5492  -16.8134 O   0  5  0  0  0  0
  -21.9414  -23.2361  -16.0135 O   0  0  0  0  0  0
  -24.7651  -25.1496  -19.2133 O   0  0  0  0  0  0
  -26.3130  -22.3857  -19.0388 N   0  0  0  0  0  0
  -27.1020  -22.8051  -20.0536 C   0  0  0  0  0  0
  -27.3286  -21.7675  -21.1554 C   0  0  0  0  0  0
  -26.4806  -20.5423  -21.0730 C   0  0  0  0  0  0
  -26.6321  -19.6129  -20.0667 C   0  0  0  0  0  0
  -25.4359  -18.3508  -20.1587 S   0  0  0  0  0  0
  -24.8536  -19.0691  -21.6508 C   0  0  0  0  0  0
  -23.8681  -18.4714  -22.4126 N   0  0  0  0  0  0
  -25.4517  -20.2164  -21.9677 N   0  0  0  0  0  0
  -28.1458  -21.9899  -22.1107 N   0  0  0  0  0  0
  -28.1604  -20.9349  -23.0573 O   0  0  0  0  0  0
  -29.3298  -20.9378  -23.8967 C   0  0  0  0  0  0
  -29.2053  -21.9498  -25.0672 C   0  0  0  0  0  0
  -28.7687  -23.0989  -24.8133 O   0  5  0  0  0  0
  -29.5778  -21.6198  -26.2221 O   0  0  0  0  0  0
  -30.6354  -21.2121  -23.1126 C   0  0  0  0  0  0
  -29.3578  -19.4991  -24.4552 C   0  0  0  0  0  0
  -27.5644  -23.9494  -20.1278 O   0  0  0  0  0  0
  -24.3632  -20.4545  -17.9044 H   0  0  0  0  0  0
  -22.8308  -21.1779  -17.4784 H   0  0  0  0  0  0
  -23.5883  -21.5848  -19.0107 H   0  0  0  0  0  0
  -24.7048  -22.3439  -16.2056 H   0  0  0  0  0  0
  -26.5451  -23.5156  -17.2134 H   0  0  0  0  0  0
  -26.0007  -21.4247  -19.0685 H   0  0  0  0  0  0
  -27.3644  -19.6013  -19.2687 H   0  0  0  0  0  0
  -23.8917  -18.6707  -23.4042 H   0  0  0  0  0  0
  -23.6778  -17.4988  -22.2184 H   0  0  0  0  0  0
  -31.5135  -21.0461  -23.7385 H   0  0  0  0  0  0
  -30.6910  -22.2381  -22.7481 H   0  0  0  0  0  0
  -30.7185  -20.5487  -22.2510 H   0  0  0  0  0  0
  -30.2318  -19.3199  -25.0822 H   0  0  0  0  0  0
  -29.3825  -18.7697  -23.6436 H   0  0  0  0  0  0
  -28.4694  -19.2897  -25.0517 H   0  0  0  0  0  0
  1  2  1  0  0  0
  1 29  1  0  0  0
  1 30  1  0  0  0
  1 31  1  0  0  0
  2  5  1  0  0  0
  2  3  1  0  0  0
  2 32  1  0  0  0
  3  4  1  0  0  0
  3 11  1  0  0  0
  3 33  1  0  0  0
  4  5  1  0  0  0
  4 10  2  0  0  0
  5  6  1  0  0  0
  6  7  2  0  0  0
  6  8  1  0  0  0
  6  9  2  0  0  0
 11 12  1  0  0  0
 11 34  1  0  0  0
 12 13  1  0  0  0
 12 28  2  0  0  0
 13 14  1  0  0  0
 13 20  2  3  0  0
 14 19  1  0  0  0
 14 15  2  0  0  0
 15 16  1  0  0  0
 15 35  1  0  0  0
 16 17  1  0  0  0
 17 18  1  0  0  0
 17 19  2  0  0  0
 18 36  1  0  0  0
 18 37  1  0  0  0
 20 21  1  0  0  0
 21 22  1  0  0  0
 22 23  1  0  0  0
 22 26  1  0  0  0
 22 27  1  0  0  0
 23 24  1  0  0  0
 23 25  2  0  0  0
 26 38  1  0  0  0
 26 39  1  0  0  0
 26 40  1  0  0  0
 27 41  1  0  0  0
 27 42  1  0  0  0
 27 43  1  0  0  0
M  CHG  2   8  -1  24  -1
M  END
> <s_m_entry_id>
27423

> <s_m_entry_name>
data_maestro.21

> <s_m_Source_Path>
C:\Users\olshana1\Git\GramNeg-Accumulation\Gram Negative Permeation - OmpF

> <s_m_Source_File>
data_maestro.csv

> <i_m_Source_File_Index>
21

> <s_m_job_name>
glide-dock_Nicaido_neutral

> <s_i_glide_gridfile>
3POX-grid

> <i_i_glide_lignum>
26

> <i_i_glide_rotatable_bonds>
8

> <r_i_docking_score>
-5.06471379434392

> <r_i_glide_ligand_efficiency>
-0.180882635512283

> <r_i_glide_ligand_efficiency_sa>
-0.549266215590314

> <r_i_glide_ligand_efficiency_ln>
-1.16908465019328

> <r_i_glide_gscore>
-5.06471379434392

> <r_i_glide_lipo>
0

> <r_i_glide_hbond>
-0.980680220157722

> <r_i_glide_metal>
0

> <r_i_glide_rewards>
-0.425699919799629

> <r_i_glide_evdw>
-24.2162456512451

> <r_i_glide_ecoul>
-15.9696884155273

> <r_i_glide_erotb>
0.635830109179744

> <r_i_glide_esite>
-0.687898218674958

> <r_i_glide_emodel>
-68.8717630157921

> <r_i_glide_energy>
-40.1859340667725

> <r_i_glide_einternal>
4.61073875427246

> <i_i_glide_confnum>
82

> <i_i_glide_posenum>
394

> <r_i_glide_eff_state_penalty>
0

> <r_glide_res:A132_vdw>
0.0319543790478783

> <r_glide_res:A132_coul>
-58.5308346624009

> <r_glide_res:A132_hbond>
-0.205420303149077

> <r_glide_res:A132_dist>
1.90773521654229

> <r_glide_res:A132_Eint>
-58.7043005865021

> <r_glide_res:A117_vdw>
-3.77926361134506

> <r_glide_res:A117_coul>
37.9272493782433

> <r_glide_res:A117_hbond>
0

> <r_glide_res:A117_dist>
2.79714031143792

> <r_glide_res:A117_Eint>
34.1479857668982

> <r_glide_res:A113_vdw>
-1.76232077024175

> <r_glide_res:A113_coul>
34.5260056152426

> <r_glide_res:A113_hbond>
0

> <r_glide_res:A113_dist>
3.58597509921197

> <r_glide_res:A113_Eint>
32.7636848450009

> <r_glide_res:A82_vdw>
-1.62400201452018

> <r_glide_res:A82_coul>
-57.7685637250828

> <r_glide_res:A82_hbond>
0

> <r_glide_res:A82_dist>
2.92076089297739

> <r_glide_res:A82_Eint>
-59.392565739603

> <r_glide_res:A42_vdw>
0.663852796996336

> <r_glide_res:A42_coul>
-69.9859441377772

> <r_glide_res:A42_hbond>
-0.345952168321119

> <r_glide_res:A42_dist>
1.86334016753486

> <r_glide_res:A42_Eint>
-69.668043509102

> <r_glide_res:A16_vdw>
-0.68685244777939

> <r_glide_res:A16_coul>
-57.4438345557854

> <r_glide_res:A16_hbond>
-0.2

> <r_glide_res:A16_dist>
2.07893238189768

> <r_glide_res:A16_Eint>
-58.3306870035648

> <s_m_source_file>
ligprep_Nicaido_neutral.maegz

> <i_m_source_file_index>
21

> <i_lp_mmshare_version>
58128

> <i_f3d_flags>
0

> <s_lp_Force_Field>
S-OPLS

> <r_lp_Energy>
55.612973

> <b_lp_Chiralities_Consistent>
1

> <s_lp_Variant>
Aztreonam-1

> <s_epik_input>
Tz1TKD1PKShbT0hdKU4xQyg9TylbQ0BASF0oW0NAQEhdMVtDSDNdKVtOSF1DKD1PKS9DKGMyW2NIXXNjKG4yKVtOSDJdKT1OL09DKFtDSDNdKShbQ0gzXSlDKD1PKVtPSF0=

> <s_epik_cmdline>
J2VwaWtfcHl0aG9uJywgJy1waHQnLCAnMC4wJywgJy1waCcsICc3LjQnLCAnLW50JywgJy1tYScsICc1MDAnLCAnLWltYWUnLCAnPGluZmlsZS5tYWU+JywgJy1vbWFlJywgJzxvdXRmaWxlLm1hZT4n

> <r_lp_tautomer_probability>
1

> <r_epik_Ionization_Penalty>
  0.0004

> <r_epik_Ionization_Penalty_Charging>
  0.0000

> <r_epik_Ionization_Penalty_Neutral>
  0.0004

> <r_epik_State_Penalty>
  0.0000

> <r_epik_Charging_Adjusted_Penalty>
4.45674509427693e-05

> <i_epik_Tot_Q>
-2

> <i_epik_Tot_abs_Q>
2

> <s_epik_Chemistry_Notes>
This compound has an imine and may undergo hydrolysis.

> <s_m_subgroup_title>
glide-dock_Nicaido_neutral_pv1

> <s_m_subgroupid>
glide-dock_Nicaido_neutral_pv1

> <b_m_subgroup_collapsed>
0

$$$$
Imipenem
                    3D
 Schrodinger Suite 2022-2.
 37 38  0  0  1  0            999 V2000
  -22.6642  -19.2191  -26.8129 C   0  0  0  0  0  0
  -22.2441  -20.6948  -26.7752 C   0  0  2  0  0  0
  -22.5642  -21.3585  -25.4276 C   0  0  1  0  0  0
  -24.0342  -21.6753  -25.0529 C   0  0  2  0  0  0
  -24.7006  -21.4538  -23.6784 C   0  0  0  0  0  0
  -24.8606  -22.8557  -23.1273 C   0  0  0  0  0  0
  -25.8109  -23.2119  -21.6582 S   0  0  0  0  0  0
  -26.6957  -21.6714  -21.2508 C   0  0  0  0  0  0
  -27.3342  -21.6979  -19.8418 C   0  0  0  0  0  0
  -28.3689  -20.6619  -19.6416 N   0  3  0  0  0  0
  -28.2878  -19.3496  -19.9276 C   0  0  0  0  0  0
  -27.1912  -18.7495  -20.4135 N   0  0  0  0  0  0
  -24.1771  -23.7295  -23.8754 C   0  0  0  0  0  0
  -23.6314  -23.0689  -24.9627 N   0  0  0  0  0  0
  -22.3518  -22.8978  -25.4333 C   0  0  0  0  0  0
  -21.4469  -23.6849  -25.6136 O   0  0  0  0  0  0
  -23.9693  -25.2650  -23.7225 C   0  0  0  0  0  0
  -24.2796  -25.9498  -24.7250 O   0  5  0  0  0  0
  -23.5688  -25.6864  -22.6167 O   0  0  0  0  0  0
  -20.8540  -20.7496  -27.0308 O   0  0  0  0  0  0
  -23.7418  -19.1084  -26.6879 H   0  0  0  0  0  0
  -22.3908  -18.7562  -27.7618 H   0  0  0  0  0  0
  -22.1817  -18.6467  -26.0199 H   0  0  0  0  0  0
  -22.7487  -21.2209  -27.5873 H   0  0  0  0  0  0
  -22.0568  -20.8686  -24.5952 H   0  0  0  0  0  0
  -24.7166  -21.5503  -25.8964 H   0  0  0  0  0  0
  -24.0681  -20.8641  -23.0142 H   0  0  0  0  0  0
  -25.6617  -20.9501  -23.7794 H   0  0  0  0  0  0
  -25.9660  -20.8655  -21.3018 H   0  0  0  0  0  0
  -27.4480  -21.4776  -22.0162 H   0  0  0  0  0  0
  -27.8128  -22.6628  -19.6724 H   0  0  0  0  0  0
  -26.5659  -21.5916  -19.0750 H   0  0  0  0  0  0
  -29.1697  -18.7415  -19.7679 H   0  0  0  0  0  0
  -26.2847  -19.1830  -20.3580 H   0  0  0  0  0  0
  -27.2867  -17.8514  -20.8840 H   0  0  0  0  0  0
  -20.6170  -21.6528  -27.2013 H   0  0  0  0  0  0
  -29.2580  -20.9413  -19.2216 H   0  0  0  0  0  0
  1  2  1  0  0  0
  1 21  1  0  0  0
  1 22  1  0  0  0
  1 23  1  0  0  0
  2  3  1  0  0  0
  2 20  1  0  0  0
  2 24  1  0  0  0
  3 15  1  0  0  0
  3  4  1  0  0  0
  3 25  1  0  0  0
  4 14  1  0  0  0
  4  5  1  0  0  0
  4 26  1  0  0  0
  5  6  1  0  0  0
  5 27  1  0  0  0
  5 28  1  0  0  0
  6  7  1  0  0  0
  6 13  2  0  0  0
  7  8  1  0  0  0
  8  9  1  0  0  0
  8 29  1  0  0  0
  8 30  1  0  0  0
  9 10  1  0  0  0
  9 31  1  0  0  0
  9 32  1  0  0  0
 10 11  2  3  0  0
 10 37  1  0  0  0
 11 12  1  0  0  0
 11 33  1  0  0  0
 12 34  1  0  0  0
 12 35  1  0  0  0
 13 14  1  0  0  0
 13 17  1  0  0  0
 14 15  1  0  0  0
 15 16  2  0  0  0
 17 18  1  0  0  0
 17 19  2  0  0  0
 20 36  1  0  0  0
M  CHG  2  10   1  18  -1
M  END
> <s_m_entry_id>
27424

> <s_m_entry_name>
data_maestro.12

> <s_m_Source_Path>
C:\Users\olshana1\Git\GramNeg-Accumulation\Gram Negative Permeation - OmpF

> <s_m_Source_File>
data_maestro.csv

> <i_m_Source_File_Index>
12

> <s_m_job_name>
glide-dock_Nicaido_neutral

> <s_i_glide_gridfile>
3POX-grid

> <i_i_glide_lignum>
17

> <i_i_glide_rotatable_bonds>
7

> <r_i_docking_score>
-5.0645519985624

> <r_i_glide_ligand_efficiency>
-0.25322759992812

> <r_i_glide_ligand_efficiency_sa>
-0.687365457566548

> <r_i_glide_ligand_efficiency_ln>
-1.26749032513576

> <r_i_glide_gscore>
-5.0645519985624

> <r_i_glide_lipo>
-0.141218699668618

> <r_i_glide_hbond>
-0.330479511363863

> <r_i_glide_metal>
0

> <r_i_glide_rewards>
-1.61219273911884

> <r_i_glide_evdw>
-19.0335350036621

> <r_i_glide_ecoul>
-17.4353866577148

> <r_i_glide_erotb>
1.02473259195513

> <r_i_glide_esite>
-0.43840889152587

> <r_i_glide_emodel>
-64.7070506982953

> <r_i_glide_energy>
-36.468921661377

> <r_i_glide_einternal>
2.16650605201721

> <i_i_glide_confnum>
48

> <i_i_glide_posenum>
192

> <r_i_glide_eff_state_penalty>
0

> <r_glide_res:A132_vdw>
-1.40558291510234

> <r_glide_res:A132_coul>
-14.1621642748274

> <r_glide_res:A132_hbond>
0

> <r_glide_res:A132_dist>
2.56148068341126

> <r_glide_res:A132_Eint>
-15.5677471899297

> <r_glide_res:A117_vdw>
-1.26288713308317

> <r_glide_res:A117_coul>
-13.9730039395087

> <r_glide_res:A117_hbond>
0

> <r_glide_res:A117_dist>
2.0068201233005

> <r_glide_res:A117_Eint>
-15.2358910725919

> <r_glide_res:A113_vdw>
-0.0654825843365219

> <r_glide_res:A113_coul>
-33.9238923939703

> <r_glide_res:A113_hbond>
-0.130479511363863

> <r_glide_res:A113_dist>
2.02533027959612

> <r_glide_res:A113_Eint>
-34.1198544896707

> <r_glide_res:A82_vdw>
-1.07401660277239

> <r_glide_res:A82_coul>
-21.4329473241583

> <r_glide_res:A82_hbond>
-0.2

> <r_glide_res:A82_dist>
1.92511291764544

> <r_glide_res:A82_Eint>
-22.7069639269307

> <r_glide_res:A42_vdw>
-2.0154166924426

> <r_glide_res:A42_coul>
-10.3623129466475

> <r_glide_res:A42_hbond>
0

> <r_glide_res:A42_dist>
2.54855602363199

> <r_glide_res:A42_Eint>
-12.3777296390901

> <r_glide_res:A16_vdw>
-0.103891375851717

> <r_glide_res:A16_coul>
1.7077041974986

> <r_glide_res:A16_hbond>
0

> <r_glide_res:A16_dist>
6.01555252278623

> <r_glide_res:A16_Eint>
1.60381282164689

> <s_m_source_file>
ligprep_Nicaido_neutral.maegz

> <i_m_source_file_index>
12

> <i_lp_mmshare_version>
58128

> <i_f3d_flags>
0

> <s_lp_Force_Field>
S-OPLS

> <r_lp_Energy>
22.988374

> <b_lp_Chiralities_Consistent>
1

> <s_lp_Variant>
Imipenem-2

> <s_epik_input>
W0NIM11bQ0BASF0oW09IXSlbQ0BASF0xQyg9TylOKFtDQEhdMTIpQyhDKD1PKVtPSF0pPUMoW0NIMl0yKVNbQ0gyXVtDSDJdL049W0NIXS9bTkgyXQ==

> <s_epik_cmdline>
J2VwaWtfcHl0aG9uJywgJy1waHQnLCAnMC4wJywgJy1waCcsICc3LjQnLCAnLW50JywgJy1tYScsICc1MDAnLCAnLWltYWUnLCAnPGluZmlsZS5tYWU+JywgJy1vbWFlJywgJzxvdXRmaWxlLm1hZT4n

> <r_lp_tautomer_probability>
1

> <r_epik_Ionization_Penalty>
  0.0001

> <r_epik_Ionization_Penalty_Charging>
  0.0001

> <r_epik_Ionization_Penalty_Neutral>
  0.0000

> <r_epik_State_Penalty>
  0.0000

> <r_epik_Charging_Adjusted_Penalty>
9.5675940864495e-05

> <i_epik_Tot_Q>
0

> <i_epik_Tot_abs_Q>
2

> <s_epik_Chemistry_Notes>
This compound has an imine and may undergo hydrolysis.

> <s_m_subgroup_title>
glide-dock_Nicaido_neutral_pv1

> <s_m_subgroupid>
glide-dock_Nicaido_neutral_pv1

> <b_m_subgroup_collapsed>
0

$$$$
Penicillin N
                    3D
 Schrodinger Suite 2022-2.
 44 45  0  0  1  0            999 V2000
  -28.0728  -19.5503  -22.6787 C   0  0  0  0  0  0
  -29.3944  -19.7118  -23.4542 C   0  0  0  0  0  0
  -29.6643  -18.4123  -24.2392 C   0  0  0  0  0  0
  -29.3277  -21.0142  -24.3262 C   0  0  2  0  0  0
  -30.1489  -21.0858  -25.6222 C   0  0  0  0  0  0
  -29.5680  -21.5580  -26.6256 O   0  5  0  0  0  0
  -31.3513  -20.7472  -25.6228 O   0  0  0  0  0  0
  -29.8389  -22.0273  -23.4399 N   0  0  0  0  0  0
  -30.8730  -21.7979  -22.4492 C   0  0  1  0  0  0
  -30.2214  -22.9066  -21.6069 C   0  0  2  0  0  0
  -29.5691  -22.3782  -20.4133 N   0  0  0  0  0  0
  -28.5894  -22.9721  -19.7173 C   0  0  0  0  0  0
  -28.3198  -22.4110  -18.3159 C   0  0  0  0  0  0
  -27.0497  -22.9551  -17.6382 C   0  0  0  0  0  0
  -25.7460  -22.3341  -18.1625 C   0  0  0  0  0  0
  -24.4784  -22.9922  -17.5616 C   0  0  2  0  0  0
  -23.3196  -22.1046  -17.7263 N   0  3  0  0  0  0
  -24.0983  -24.3553  -18.1771 C   0  0  0  0  0  0
  -23.1735  -24.9841  -17.6132 O   0  5  0  0  0  0
  -24.6817  -24.7495  -19.2116 O   0  0  0  0  0  0
  -27.9689  -23.9496  -20.1357 O   0  0  0  0  0  0
  -29.2899  -23.1061  -22.8107 C   0  0  0  0  0  0
  -28.3691  -23.8364  -23.1084 O   0  0  0  0  0  0
  -30.7135  -19.9960  -22.2117 S   0  0  0  0  0  0
  -27.2445  -19.3056  -23.3446 H   0  0  0  0  0  0
  -28.1499  -18.7514  -21.9402 H   0  0  0  0  0  0
  -27.8081  -20.4584  -22.1364 H   0  0  0  0  0  0
  -28.9155  -18.2521  -25.0160 H   0  0  0  0  0  0
  -30.6461  -18.4119  -24.7115 H   0  0  0  0  0  0
  -29.6363  -17.5486  -23.5749 H   0  0  0  0  0  0
  -28.2893  -21.2348  -24.5796 H   0  0  0  0  0  0
  -31.8689  -22.0582  -22.8122 H   0  0  0  0  0  0
  -30.9053  -23.7311  -21.4039 H   0  0  0  0  0  0
  -30.0486  -21.6148  -19.9405 H   0  0  0  0  0  0
  -29.1688  -22.6862  -17.6913 H   0  0  0  0  0  0
  -28.3030  -21.3202  -18.3474 H   0  0  0  0  0  0
  -27.0193  -24.0418  -17.7232 H   0  0  0  0  0  0
  -27.1172  -22.7496  -16.5706 H   0  0  0  0  0  0
  -25.7611  -21.2735  -17.9069 H   0  0  0  0  0  0
  -25.7187  -22.3656  -19.2528 H   0  0  0  0  0  0
  -24.6273  -23.1310  -16.4890 H   0  0  0  0  0  0
  -22.5130  -22.5643  -17.3288 H   0  0  0  0  0  0
  -23.1658  -21.9485  -18.7119 H   0  0  0  0  0  0
  -23.4892  -21.2271  -17.2562 H   0  0  0  0  0  0
  1  2  1  0  0  0
  1 25  1  0  0  0
  1 26  1  0  0  0
  1 27  1  0  0  0
  2 24  1  0  0  0
  2  3  1  0  0  0
  2  4  1  0  0  0
  3 28  1  0  0  0
  3 29  1  0  0  0
  3 30  1  0  0  0
  4  5  1  0  0  0
  4  8  1  0  0  0
  4 31  1  0  0  0
  5  6  1  0  0  0
  5  7  2  0  0  0
  8 22  1  0  0  0
  8  9  1  0  0  0
  9 10  1  0  0  0
  9 24  1  0  0  0
  9 32  1  0  0  0
 10 11  1  0  0  0
 10 22  1  0  0  0
 10 33  1  0  0  0
 11 12  1  0  0  0
 11 34  1  0  0  0
 12 13  1  0  0  0
 12 21  2  0  0  0
 13 14  1  0  0  0
 13 35  1  0  0  0
 13 36  1  0  0  0
 14 15  1  0  0  0
 14 37  1  0  0  0
 14 38  1  0  0  0
 15 16  1  0  0  0
 15 39  1  0  0  0
 15 40  1  0  0  0
 16 17  1  0  0  0
 16 18  1  0  0  0
 16 41  1  0  0  0
 17 42  1  0  0  0
 17 43  1  0  0  0
 17 44  1  0  0  0
 18 19  1  0  0  0
 18 20  2  0  0  0
 22 23  2  0  0  0
M  CHG  3   6  -1  17   1  19  -1
M  END
> <s_m_entry_id>
27425

> <s_m_entry_name>
data_maestro.26

> <s_m_Source_Path>
C:\Users\olshana1\Git\GramNeg-Accumulation\Gram Negative Permeation - OmpF

> <s_m_Source_File>
data_maestro.csv

> <i_m_Source_File_Index>
26

> <s_m_job_name>
glide-dock_Nicaido_neutral

> <s_i_glide_gridfile>
3POX-grid

> <i_i_glide_lignum>
33

> <i_i_glide_rotatable_bonds>
8

> <r_i_docking_score>
-5.05696934317452

> <r_i_glide_ligand_efficiency>
-0.210707055965605

> <r_i_glide_ligand_efficiency_sa>
-0.607784321210409

> <r_i_glide_ligand_efficiency_ln>
-1.21036481302429

> <r_i_glide_gscore>
-5.05696934317452

> <r_i_glide_lipo>
0

> <r_i_glide_hbond>
-0.926890569389987

> <r_i_glide_metal>
0

> <r_i_glide_rewards>
-0.955359028081336

> <r_i_glide_evdw>
-17.7643966674805

> <r_i_glide_ecoul>
-17.651985168457

> <r_i_glide_erotb>
0.894795809723686

> <r_i_glide_esite>
-0.533497946784309

> <r_i_glide_emodel>
-63.8350307506589

> <r_i_glide_energy>
-35.4163818359375

> <r_i_glide_einternal>
3.30980968475342

> <i_i_glide_confnum>
138

> <i_i_glide_posenum>
124

> <r_i_glide_eff_state_penalty>
0

> <r_glide_res:A132_vdw>
-0.968549038574365

> <r_glide_res:A132_coul>
-43.9891090101698

> <r_glide_res:A132_hbond>
-0.201669564071208

> <r_glide_res:A132_dist>
1.80484963292344

> <r_glide_res:A132_Eint>
-45.1593276128154

> <r_glide_res:A117_vdw>
-1.81014996538693

> <r_glide_res:A117_coul>
21.7512794039156

> <r_glide_res:A117_hbond>
0

> <r_glide_res:A117_dist>
2.27482984948214

> <r_glide_res:A117_Eint>
19.9411294385287

> <r_glide_res:A113_vdw>
-2.21506562769589

> <r_glide_res:A113_coul>
11.4079675153747

> <r_glide_res:A113_hbond>
-0.123924207692976

> <r_glide_res:A113_dist>
2.19107857856934

> <r_glide_res:A113_Eint>
9.06897767998588

> <r_glide_res:A82_vdw>
-0.0438727168979688

> <r_glide_res:A82_coul>
-38.4871548214458

> <r_glide_res:A82_hbond>
-0.217245336921723

> <r_glide_res:A82_dist>
1.92575974375915

> <r_glide_res:A82_Eint>
-38.7482728752655

> <r_glide_res:A42_vdw>
-1.53137337370278

> <r_glide_res:A42_coul>
-42.0385568512611

> <r_glide_res:A42_hbond>
-0.0741840716205693

> <r_glide_res:A42_dist>
2.2542847476198

> <r_glide_res:A42_Eint>
-43.6441142965844

> <r_glide_res:A16_vdw>
1.06422738823151

> <r_glide_res:A16_coul>
-56.6438310662336

> <r_glide_res:A16_hbond>
-0.2

> <r_glide_res:A16_dist>
1.70723634034287

> <r_glide_res:A16_Eint>
-55.7796036780021

> <s_m_source_file>
ligprep_Nicaido_neutral.maegz

> <i_m_source_file_index>
26

> <i_lp_mmshare_version>
58128

> <i_f3d_flags>
0

> <s_lp_Force_Field>
S-OPLS

> <r_lp_Energy>
12.253328

> <b_lp_Chiralities_Consistent>
1

> <s_lp_Variant>
Penicillin N-1

> <s_epik_input>
W09IXUMoPU8pW0NASF0xQyhbQ0gzXSkoW0NIM10pU1tDQEBIXShOMTIpW0NAQEhdKEMyPU8pW05IXUMoPU8pW0NIMl1bQ0gyXVtDSDJdW0NASF0oW05IMl0pQyg9TylbT0hd

> <s_epik_cmdline>
J2VwaWtfcHl0aG9uJywgJy1waHQnLCAnMC4wJywgJy1waCcsICc3LjQnLCAnLW50JywgJy1tYScsICc1MDAnLCAnLWltYWUnLCAnPGluZmlsZS5tYWU+JywgJy1vbWFlJywgJzxvdXRmaWxlLm1hZT4n

> <r_lp_tautomer_probability>
1

> <r_epik_Ionization_Penalty>
  0.0034

> <r_epik_Ionization_Penalty_Charging>
  0.0034

> <r_epik_Ionization_Penalty_Neutral>
  0.0000

> <r_epik_State_Penalty>
  0.0000

> <r_epik_Charging_Adjusted_Penalty>
0.0034368723547391

> <i_epik_Tot_Q>
-1

> <i_epik_Tot_abs_Q>
3

> <s_epik_Chemistry_Notes>
This compound contains an acetal/aminal-like group ( X-CH(R)-Y where X, Y are N, S, or O) that may be acid/base labile, releasing an aldehyde.

> <s_m_subgroup_title>
glide-dock_Nicaido_neutral_pv1

> <s_m_subgroupid>
glide-dock_Nicaido_neutral_pv1

> <b_m_subgroup_collapsed>
0

$$$$
Ceftriaxone
                    3D
 Schrodinger Suite 2022-2.
 52 55  0  0  1  0            999 V2000
  -20.4606  -23.2116  -23.1160 C   0  0  0  0  0  0
  -21.8085  -23.6580  -22.7843 N   0  0  0  0  0  0
  -22.5926  -22.9688  -21.8169 C   0  0  0  0  0  0
  -21.5904  -21.8825  -20.7183 S   0  0  0  0  0  0
  -22.3439  -21.9946  -19.0510 C   0  0  0  0  0  0
  -23.8669  -21.8701  -18.9616 C   0  0  0  0  0  0
  -24.6883  -22.8998  -18.6126 C   0  0  0  0  0  0
  -26.0926  -22.7723  -18.6033 N   0  0  0  0  0  0
  -26.7862  -21.4964  -18.5862 C   0  0  2  0  0  0
  -28.1122  -22.2769  -18.7161 C   0  0  2  0  0  0
  -27.2354  -23.5511  -18.5763 C   0  0  0  0  0  0
  -27.4085  -24.7494  -18.5119 O   0  0  0  0  0  0
  -28.7693  -22.0462  -20.0123 N   0  0  0  0  0  0
  -29.4813  -22.9261  -20.7456 C   0  0  0  0  0  0
  -30.2889  -22.3198  -21.9067 C   0  0  0  0  0  0
  -30.4698  -20.8479  -21.9066 C   0  0  0  0  0  0
  -29.4203  -19.9646  -22.0266 C   0  0  0  0  0  0
  -29.9689  -18.3160  -22.0441 S   0  0  0  0  0  0
  -31.6205  -18.8909  -21.9564 C   0  0  0  0  0  0
  -32.6938  -18.0198  -21.9717 N   0  0  0  0  0  0
  -31.7223  -20.2163  -21.9008 N   0  0  0  0  0  0
  -30.8901  -22.9547  -22.8408 N   0  0  0  0  0  0
  -30.7677  -24.3495  -22.8133 O   0  0  0  0  0  0
  -31.9733  -24.8799  -23.3382 C   0  0  0  0  0  0
  -29.5108  -24.1305  -20.4966 O   0  0  0  0  0  0
  -26.0946  -20.4500  -19.9029 S   0  0  0  0  0  0
  -24.3790  -20.4740  -19.3183 C   0  0  0  0  0  0
  -24.1424  -24.3479  -18.3478 C   0  0  0  0  0  0
  -24.4284  -25.2011  -19.2133 O   0  5  0  0  0  0
  -23.4549  -24.5279  -17.3161 O   0  0  0  0  0  0
  -23.8876  -23.0590  -21.7365 N   0  0  0  0  0  0
  -24.5683  -23.8939  -22.6137 C   0  0  0  0  0  0
  -23.7251  -24.8371  -23.5331 C   0  0  0  0  0  0
  -24.3502  -25.6399  -24.2298 O   0  0  0  0  0  0
  -22.3693  -24.7494  -23.5037 N   0  5  0  0  0  0
  -25.7971  -23.9485  -22.6807 O   0  0  0  0  0  0
  -19.7694  -23.4241  -22.2998 H   0  0  0  0  0  0
  -20.0916  -23.7220  -24.0056 H   0  0  0  0  0  0
  -20.4433  -22.1407  -23.3240 H   0  0  0  0  0  0
  -21.9113  -21.2014  -18.4411 H   0  0  0  0  0  0
  -21.9744  -22.9162  -18.6093 H   0  0  0  0  0  0
  -26.6831  -21.0110  -17.6135 H   0  0  0  0  0  0
  -28.7689  -22.0887  -17.8668 H   0  0  0  0  0  0
  -28.8653  -21.0695  -20.2558 H   0  0  0  0  0  0
  -28.3608  -20.1661  -22.0972 H   0  0  0  0  0  0
  -33.6159  -18.3295  -21.7027 H   0  0  0  0  0  0
  -32.5232  -17.0145  -22.0130 H   0  0  0  0  0  0
  -31.9458  -25.9675  -23.3187 H   0  0  0  0  0  0
  -32.8327  -24.5658  -22.7423 H   0  0  0  0  0  0
  -32.1317  -24.5661  -24.3713 H   0  0  0  0  0  0
  -24.2875  -19.8322  -18.4419 H   0  0  0  0  0  0
  -23.7634  -20.0348  -20.1029 H   0  0  0  0  0  0
  1  2  1  0  0  0
  1 37  1  0  0  0
  1 38  1  0  0  0
  1 39  1  0  0  0
  2 35  1  0  0  0
  2  3  1  0  0  0
  3  4  1  0  0  0
  3 31  2  0  0  0
  4  5  1  0  0  0
  5  6  1  0  0  0
  5 40  1  0  0  0
  5 41  1  0  0  0
  6 27  1  0  0  0
  6  7  2  0  0  0
  7  8  1  0  0  0
  7 28  1  0  0  0
  8 11  1  0  0  0
  8  9  1  0  0  0
  9 10  1  0  0  0
  9 26  1  0  0  0
  9 42  1  0  0  0
 10 11  1  0  0  0
 10 13  1  0  0  0
 10 43  1  0  0  0
 11 12  2  0  0  0
 13 14  1  0  0  0
 13 44  1  0  0  0
 14 15  1  0  0  0
 14 25  2  0  0  0
 15 16  1  0  0  0
 15 22  2  3  0  0
 16 21  1  0  0  0
 16 17  2  0  0  0
 17 18  1  0  0  0
 17 45  1  0  0  0
 18 19  1  0  0  0
 19 20  1  0  0  0
 19 21  2  0  0  0
 20 46  1  0  0  0
 20 47  1  0  0  0
 22 23  1  0  0  0
 23 24  1  0  0  0
 24 48  1  0  0  0
 24 49  1  0  0  0
 24 50  1  0  0  0
 26 27  1  0  0  0
 27 51  1  0  0  0
 27 52  1  0  0  0
 28 29  1  0  0  0
 28 30  2  0  0  0
 31 32  1  0  0  0
 32 33  1  0  0  0
 32 36  2  0  0  0
 33 34  2  0  0  0
 33 35  1  0  0  0
M  CHG  2  29  -1  35  -1
M  END
> <s_m_entry_id>
27426

> <s_m_entry_name>
data_maestro.22

> <s_m_Source_Path>
C:\Users\olshana1\Git\GramNeg-Accumulation\Gram Negative Permeation - OmpF

> <s_m_Source_File>
data_maestro.csv

> <i_m_Source_File_Index>
22

> <s_m_job_name>
glide-dock_Nicaido_neutral

> <s_i_glide_gridfile>
3POX-grid

> <i_i_glide_lignum>
29

> <i_i_glide_rotatable_bonds>
9

> <r_i_docking_score>
-5.024460635126

> <r_i_glide_ligand_efficiency>
-0.139568350975722

> <r_i_glide_ligand_efficiency_sa>
-0.460844540619544

> <r_i_glide_ligand_efficiency_ln>
-1.09620156534543

> <r_i_glide_gscore>
-5.024460635126

> <r_i_glide_lipo>
0

> <r_i_glide_hbond>
-0.941763228573847

> <r_i_glide_metal>
0

> <r_i_glide_rewards>
0.243274397114396

> <r_i_glide_evdw>
-32.3745765686035

> <r_i_glide_ecoul>
-16.2126789093018

> <r_i_glide_erotb>
0.472124986767549

> <r_i_glide_esite>
-0.747466125608656

> <r_i_glide_emodel>
-75.7495482844131

> <r_i_glide_energy>
-48.5872554779053

> <r_i_glide_einternal>
15.8874454498291

> <i_i_glide_confnum>
256

> <i_i_glide_posenum>
17

> <r_i_glide_eff_state_penalty>
0

> <r_glide_res:A132_vdw>
-2.64189301313387

> <r_glide_res:A132_coul>
-79.0622947413116

> <r_glide_res:A132_hbond>
-0.170616246119206

> <r_glide_res:A132_dist>
2.02376482479663

> <r_glide_res:A132_Eint>
-81.8748040005647

> <r_glide_res:A117_vdw>
-1.72106279144045

> <r_glide_res:A117_coul>
33.676817651857

> <r_glide_res:A117_hbond>
0

> <r_glide_res:A117_dist>
3.16745936697894

> <r_glide_res:A117_Eint>
31.9557548604165

> <r_glide_res:A113_vdw>
-5.95426527990458

> <r_glide_res:A113_coul>
30.3227691140983

> <r_glide_res:A113_hbond>
0

> <r_glide_res:A113_dist>
2.49518620055647

> <r_glide_res:A113_Eint>
24.3685038341938

> <r_glide_res:A82_vdw>
-0.521297814269897

> <r_glide_res:A82_coul>
-66.2983102017791

> <r_glide_res:A82_hbond>
-0.201781189109181

> <r_glide_res:A82_dist>
1.97992782189476

> <r_glide_res:A82_Eint>
-67.0213892051582

> <r_glide_res:A42_vdw>
-1.27682319060923

> <r_glide_res:A42_coul>
-47.8982941041921

> <r_glide_res:A42_hbond>
0

> <r_glide_res:A42_dist>
3.64876775227316

> <r_glide_res:A42_Eint>
-49.1751172948013

> <r_glide_res:A16_vdw>
-0.184835870797568

> <r_glide_res:A16_coul>
-30.5211845907539

> <r_glide_res:A16_hbond>
0

> <r_glide_res:A16_dist>
5.3877126778706

> <r_glide_res:A16_Eint>
-30.7060204615515

> <s_m_source_file>
ligprep_Nicaido_neutral.maegz

> <i_m_source_file_index>
22

> <i_lp_mmshare_version>
58128

> <i_f3d_flags>
0

> <s_lp_Force_Field>
S-OPLS

> <r_lp_Energy>
111.196812

> <b_lp_Chiralities_Consistent>
1

> <s_lp_Variant>
Ceftriaxone-2

> <s_epik_input>
W09IXWMobjEpYyg9TyluYyhuMVtDSDNdKVNbQ0gyXUMoPUMyQyg9TylbT0hdKVtDSDJdU1tDQEhdKE4yMylbQ0BIXShDMz1PKVtOSF1DKD1PKS9DKD1OL09bQ0gzXSljNFtjSF1zYyhuNClbTkgyXQ==

> <s_epik_cmdline>
J2VwaWtfcHl0aG9uJywgJy1waHQnLCAnMC4wJywgJy1waCcsICc3LjQnLCAnLW50JywgJy1tYScsICc1MDAnLCAnLWltYWUnLCAnPGluZmlsZS5tYWU+JywgJy1vbWFlJywgJzxvdXRmaWxlLm1hZT4n

> <r_lp_tautomer_probability>
1

> <r_epik_Ionization_Penalty>
  0.0014

> <r_epik_Ionization_Penalty_Charging>
  0.0010

> <r_epik_Ionization_Penalty_Neutral>
  0.0004

> <r_epik_State_Penalty>
  0.0000

> <r_epik_Charging_Adjusted_Penalty>
0.000994184415634904

> <i_epik_Tot_Q>
-2

> <i_epik_Tot_abs_Q>
2

> <s_epik_Chemistry_Notes>
This compound has an imine and may undergo hydrolysis. This compound contains an acetal/aminal-like group ( X-CH(R)-Y where X, Y are N, S, or O) that may be acid/base labile, releasing an aldehyde.

> <s_m_subgroup_title>
glide-dock_Nicaido_neutral_pv1

> <s_m_subgroupid>
glide-dock_Nicaido_neutral_pv1

> <b_m_subgroup_collapsed>
0

$$$$
Cephaloglycin
                    3D
 Schrodinger Suite 2022-2.
 46 48  0  0  1  0            999 V2000
  -31.2072  -17.8407  -24.4094 C   0  0  0  0  0  0
  -30.2634  -18.6796  -25.2599 C   0  0  0  0  0  0
  -29.1737  -19.0686  -24.5865 O   0  0  0  0  0  0
  -28.1750  -19.8030  -25.2699 C   0  0  0  0  0  0
  -27.1426  -20.3806  -24.3148 C   0  0  0  0  0  0
  -27.1202  -21.6586  -23.8526 C   0  0  0  0  0  0
  -26.0413  -22.0358  -23.0405 N   0  0  0  0  0  0
  -25.7095  -21.2204  -21.8839 C   0  0  1  0  0  0
  -24.6251  -22.2629  -21.5703 C   0  0  2  0  0  0
  -25.4120  -23.1653  -22.5539 C   0  0  0  0  0  0
  -25.5111  -24.3472  -22.8104 O   0  0  0  0  0  0
  -24.6840  -22.6679  -20.1672 N   0  0  0  0  0  0
  -24.2828  -23.8498  -19.6807 C   0  0  0  0  0  0
  -24.4923  -24.0831  -18.1767 C   0  0  2  0  0  0
  -23.1105  -24.0179  -17.6113 C   0  0  0  0  0  0
  -22.1739  -25.0695  -17.7587 C   0  0  0  0  0  0
  -20.8669  -24.9735  -17.2444 C   0  0  0  0  0  0
  -20.4641  -23.8088  -16.5691 C   0  0  0  0  0  0
  -21.3772  -22.7518  -16.4027 C   0  0  0  0  0  0
  -22.6859  -22.8645  -16.9107 C   0  0  0  0  0  0
  -25.1688  -25.3603  -17.9602 N   0  0  0  0  0  0
  -23.8143  -24.7467  -20.3882 O   0  0  0  0  0  0
  -25.2667  -19.5227  -22.3816 S   0  0  0  0  0  0
  -25.9923  -19.4146  -24.0461 C   0  0  0  0  0  0
  -28.2404  -22.7497  -24.0971 C   0  0  0  0  0  0
  -28.8048  -22.7495  -25.2132 O   0  5  0  0  0  0
  -28.3921  -23.6189  -23.2094 O   0  0  0  0  0  0
  -30.5256  -18.9598  -26.4324 O   0  0  0  0  0  0
  -31.8275  -17.2080  -25.0425 H   0  0  0  0  0  0
  -31.8541  -18.4858  -23.8165 H   0  0  0  0  0  0
  -30.6446  -17.1980  -23.7319 H   0  0  0  0  0  0
  -27.6659  -19.1358  -25.9673 H   0  0  0  0  0  0
  -28.6296  -20.5731  -25.8876 H   0  0  0  0  0  0
  -26.5395  -21.2092  -21.1709 H   0  0  0  0  0  0
  -23.6327  -21.9598  -21.9069 H   0  0  0  0  0  0
  -25.0608  -21.9900  -19.5190 H   0  0  0  0  0  0
  -25.1214  -23.2918  -17.7665 H   0  0  0  0  0  0
  -22.4627  -25.9495  -18.3095 H   0  0  0  0  0  0
  -20.1681  -25.7835  -17.3892 H   0  0  0  0  0  0
  -19.4594  -23.7134  -16.1862 H   0  0  0  0  0  0
  -21.0760  -21.8538  -15.8825 H   0  0  0  0  0  0
  -23.3705  -22.0398  -16.7694 H   0  0  0  0  0  0
  -25.7869  -25.2719  -17.1508 H   0  0  0  0  0  0
  -25.7838  -25.5532  -18.7351 H   0  0  0  0  0  0
  -25.2138  -19.5834  -24.7914 H   0  0  0  0  0  0
  -26.3337  -18.3852  -24.1785 H   0  0  0  0  0  0
  1  2  1  0  0  0
  1 29  1  0  0  0
  1 30  1  0  0  0
  1 31  1  0  0  0
  2  3  1  0  0  0
  2 28  2  0  0  0
  3  4  1  0  0  0
  4  5  1  0  0  0
  4 32  1  0  0  0
  4 33  1  0  0  0
  5 24  1  0  0  0
  5  6  2  0  0  0
  6  7  1  0  0  0
  6 25  1  0  0  0
  7 10  1  0  0  0
  7  8  1  0  0  0
  8  9  1  0  0  0
  8 23  1  0  0  0
  8 34  1  0  0  0
  9 10  1  0  0  0
  9 12  1  0  0  0
  9 35  1  0  0  0
 10 11  2  0  0  0
 12 13  1  0  0  0
 12 36  1  0  0  0
 13 14  1  0  0  0
 13 22  2  0  0  0
 14 15  1  0  0  0
 14 21  1  0  0  0
 14 37  1  0  0  0
 15 20  1  0  0  0
 15 16  2  0  0  0
 16 17  1  0  0  0
 16 38  1  0  0  0
 17 18  2  0  0  0
 17 39  1  0  0  0
 18 19  1  0  0  0
 18 40  1  0  0  0
 19 20  2  0  0  0
 19 41  1  0  0  0
 20 42  1  0  0  0
 21 43  1  0  0  0
 21 44  1  0  0  0
 23 24  1  0  0  0
 24 45  1  0  0  0
 24 46  1  0  0  0
 25 26  1  0  0  0
 25 27  2  0  0  0
M  CHG  1  26  -1
M  END
> <s_m_entry_id>
27427

> <s_m_entry_name>
data_maestro.16

> <s_m_Source_Path>
C:\Users\olshana1\Git\GramNeg-Accumulation\Gram Negative Permeation - OmpF

> <s_m_Source_File>
data_maestro.csv

> <i_m_Source_File_Index>
16

> <s_m_job_name>
glide-dock_Nicaido_neutral

> <s_i_glide_gridfile>
3POX-grid

> <i_i_glide_lignum>
21

> <i_i_glide_rotatable_bonds>
8

> <r_i_docking_score>
-5.02426240867394

> <r_i_glide_ligand_efficiency>
-0.179437943166926

> <r_i_glide_ligand_efficiency_sa>
-0.544879278751524

> <r_i_glide_ligand_efficiency_ln>
-1.15974728267635

> <r_i_glide_gscore>
-5.13566240867394

> <r_i_glide_lipo>
0

> <r_i_glide_hbond>
-1.21146892314011

> <r_i_glide_metal>
0

> <r_i_glide_rewards>
-0.651599139146537

> <r_i_glide_evdw>
-24.4971141815186

> <r_i_glide_ecoul>
-15.0852041244507

> <r_i_glide_erotb>
0.600502745111863

> <r_i_glide_esite>
-0.385460763755626

> <r_i_glide_emodel>
-65.9392480146665

> <r_i_glide_energy>
-39.5823183059692

> <r_i_glide_einternal>
3.36318778991699

> <i_i_glide_confnum>
89

> <i_i_glide_posenum>
358

> <r_i_glide_eff_state_penalty>
0.1114

> <r_glide_res:A132_vdw>
-2.02301366830608

> <r_glide_res:A132_coul>
-34.8404651876486

> <r_glide_res:A132_hbond>
-0.0253200305622667

> <r_glide_res:A132_dist>
2.18818807644012

> <r_glide_res:A132_Eint>
-36.888798886517

> <r_glide_res:A117_vdw>
-5.13560491792336

> <r_glide_res:A117_coul>
19.6908179791851

> <r_glide_res:A117_hbond>
0

> <r_glide_res:A117_dist>
2.4810002911552

> <r_glide_res:A117_Eint>
14.5552130612617

> <r_glide_res:A113_vdw>
-0.50970962401873

> <r_glide_res:A113_coul>
20.3881969553679

> <r_glide_res:A113_hbond>
0

> <r_glide_res:A113_dist>
5.1952762223103

> <r_glide_res:A113_Eint>
19.8784873313492

> <r_glide_res:A82_vdw>
0.072804505669775

> <r_glide_res:A82_coul>
-50.0492728819585

> <r_glide_res:A82_hbond>
-0.277001759044762

> <r_glide_res:A82_dist>
2.08139323930719

> <r_glide_res:A82_Eint>
-50.2534701353335

> <r_glide_res:A42_vdw>
2.18897379201412

> <r_glide_res:A42_coul>
-48.4123908184046

> <r_glide_res:A42_hbond>
-0.30114713353308

> <r_glide_res:A42_dist>
1.67371078935167

> <r_glide_res:A42_Eint>
-46.5245641599235

> <r_glide_res:A16_vdw>
-0.917640121798729

> <r_glide_res:A16_coul>
-32.8429426639271

> <r_glide_res:A16_hbond>
0

> <r_glide_res:A16_dist>
2.78297567853339

> <r_glide_res:A16_Eint>
-33.7605827857258

> <s_m_source_file>
ligprep_Nicaido_neutral.maegz

> <i_m_source_file_index>
16

> <i_lp_mmshare_version>
58128

> <i_f3d_flags>
0

> <s_lp_Force_Field>
S-OPLS

> <r_lp_Energy>
48.658328

> <b_lp_Chiralities_Consistent>
1

> <s_lp_Variant>
Cephaloglycin-1

> <s_epik_input>
W0NIM11DKD1PKU9bQ0gyXUMoPUMxQyg9TylbT0hdKVtDSDJdU1tDQEBIXShOMTIpW0NASF0oQzI9TylbTkhdQyg9TylbQ0BASF0oW05IMl0pYzNbY0hdW2NIXVtjSF1bY0hdW2NIXTM=

> <s_epik_cmdline>
J2VwaWtfcHl0aG9uJywgJy1waHQnLCAnMC4wJywgJy1waCcsICc3LjQnLCAnLW50JywgJy1tYScsICc1MDAnLCAnLWltYWUnLCAnPGluZmlsZS5tYWU+JywgJy1vbWFlJywgJzxvdXRmaWxlLm1hZT4n

> <r_epik_Ionization_Penalty>
  0.1114

> <r_epik_Ionization_Penalty_Charging>
  0.0000

> <r_epik_Ionization_Penalty_Neutral>
  0.1114

> <r_epik_State_Penalty>
  0.1114

> <r_epik_Charging_Adjusted_Penalty>
0.111378695294398

> <i_epik_Tot_Q>
-1

> <i_epik_Tot_abs_Q>
1

> <s_epik_Chemistry_Notes>
This compound has an ester and may undergo hydrolysis at high or low pH. This compound contains an acetal/aminal-like group ( X-CH(R)-Y where X, Y are N, S, or O) that may be acid/base labile, releasing an aldehyde.

> <s_m_subgroup_title>
glide-dock_Nicaido_neutral_pv1

> <s_m_subgroupid>
glide-dock_Nicaido_neutral_pv1

> <b_m_subgroup_collapsed>
0

$$$$
LY097964
                    3D
 Schrodinger Suite 2022-2.
 40 42  0  0  1  0            999 V2000
  -29.0056  -26.2298  -17.3280 C   0  0  0  0  0  0
  -28.3689  -24.9911  -17.5368 O   0  0  0  0  0  0
  -28.9409  -24.3496  -18.6365 N   0  0  0  0  0  0
  -28.1242  -23.5246  -19.1620 C   0  0  0  0  0  0
  -26.7235  -23.3481  -18.7028 C   0  0  0  0  0  0
  -26.3383  -22.2249  -18.0097 C   0  0  0  0  0  0
  -24.7004  -22.3495  -17.4305 S   0  0  0  0  0  0
  -24.5879  -23.9215  -18.2093 C   0  0  0  0  0  0
  -23.4232  -24.6692  -18.1733 N   0  0  0  0  0  0
  -25.6978  -24.2975  -18.8441 N   0  0  0  0  0  0
  -28.4847  -22.7241  -20.3834 C   0  0  0  0  0  0
  -29.7883  -22.3882  -20.4134 N   0  0  0  0  0  0
  -30.5980  -21.8398  -21.5016 C   0  0  1  0  0  0
  -30.0718  -20.5242  -22.1061 C   0  0  1  0  0  0
  -30.0845  -21.2036  -23.3882 N   0  0  0  0  0  0
  -30.3008  -22.4719  -22.8742 C   0  0  0  0  0  0
  -30.2338  -23.5895  -23.3440 O   0  0  0  0  0  0
  -29.6595  -20.5713  -24.5659 C   0  0  0  0  0  0
  -29.0583  -21.5496  -25.6239 C   0  0  0  0  0  0
  -28.1836  -22.3495  -25.2134 O   0  5  0  0  0  0
  -29.5689  -21.5496  -26.7674 O   0  0  0  0  0  0
  -29.6956  -19.2176  -24.7081 C   0  0  0  0  0  0
  -30.2235  -18.2639  -23.6333 C   0  0  0  0  0  0
  -31.1283  -19.0576  -22.2760 S   0  0  0  0  0  0
  -29.1684  -18.4649  -25.9225 C   0  0  0  0  0  0
  -27.6642  -22.4942  -21.2728 O   0  0  0  0  0  0
  -28.6134  -26.6654  -16.4134 H   0  0  0  0  0  0
  -30.0846  -26.1217  -17.2134 H   0  0  0  0  0  0
  -28.7689  -26.9192  -18.1387 H   0  0  0  0  0  0
  -26.9337  -21.3586  -17.7535 H   0  0  0  0  0  0
  -23.2875  -25.3262  -18.9253 H   0  0  0  0  0  0
  -22.5830  -24.1764  -17.9061 H   0  0  0  0  0  0
  -30.2933  -22.4667  -19.5245 H   0  0  0  0  0  0
  -31.6582  -21.7799  -21.2529 H   0  0  0  0  0  0
  -29.0575  -20.2530  -21.8058 H   0  0  0  0  0  0
  -29.3760  -17.7294  -23.2082 H   0  0  0  0  0  0
  -30.8754  -17.5147  -24.0838 H   0  0  0  0  0  0
  -28.3689  -17.7917  -25.6152 H   0  0  0  0  0  0
  -28.7690  -19.1050  -26.7046 H   0  0  0  0  0  0
  -29.9605  -17.8585  -26.3621 H   0  0  0  0  0  0
  1  2  1  0  0  0
  1 27  1  0  0  0
  1 28  1  0  0  0
  1 29  1  0  0  0
  2  3  1  0  0  0
  3  4  2  3  0  0
  4  5  1  0  0  0
  4 11  1  0  0  0
  5 10  1  0  0  0
  5  6  2  0  0  0
  6  7  1  0  0  0
  6 30  1  0  0  0
  7  8  1  0  0  0
  8  9  1  0  0  0
  8 10  2  0  0  0
  9 31  1  0  0  0
  9 32  1  0  0  0
 11 12  1  0  0  0
 11 26  2  0  0  0
 12 13  1  0  0  0
 12 33  1  0  0  0
 13 16  1  0  0  0
 13 14  1  0  0  0
 13 34  1  0  0  0
 14 24  1  0  0  0
 14 15  1  0  0  0
 14 35  1  0  0  0
 15 16  1  0  0  0
 15 18  1  0  0  0
 16 17  2  0  0  0
 18 19  1  0  0  0
 18 22  2  0  0  0
 19 20  1  0  0  0
 19 21  2  0  0  0
 22 23  1  0  0  0
 22 25  1  0  0  0
 23 24  1  0  0  0
 23 36  1  0  0  0
 23 37  1  0  0  0
 25 38  1  0  0  0
 25 39  1  0  0  0
 25 40  1  0  0  0
M  CHG  1  20  -1
M  END
> <s_m_entry_id>
27428

> <s_m_entry_name>
data_maestro.7

> <s_m_Source_Path>
C:\Users\olshana1\Git\GramNeg-Accumulation\Gram Negative Permeation - OmpF

> <s_m_Source_File>
data_maestro.csv

> <i_m_Source_File_Index>
7

> <s_m_job_name>
glide-dock_Nicaido_neutral

> <s_i_glide_gridfile>
3POX-grid

> <i_i_glide_lignum>
9

> <i_i_glide_rotatable_bonds>
6

> <r_i_docking_score>
-5.02209976266329

> <r_i_glide_ligand_efficiency>
-0.193157683179357

> <r_i_glide_ligand_efficiency_sa>
-0.572228876380063

> <r_i_glide_ligand_efficiency_ln>
-1.17942365040808

> <r_i_glide_gscore>
-5.02209976266329

> <r_i_glide_lipo>
-0.0692859115477281

> <r_i_glide_hbond>
-0.847703553242976

> <r_i_glide_metal>
0

> <r_i_glide_rewards>
-0.617948222138591

> <r_i_glide_evdw>
-30.1946907043457

> <r_i_glide_ecoul>
-12.3870763778687

> <r_i_glide_erotb>
0.622478626066327

> <r_i_glide_esite>
-0.741844709902735

> <r_i_glide_emodel>
-63.9375060752165

> <r_i_glide_energy>
-42.5817670822144

> <r_i_glide_einternal>
7.23883581161499

> <i_i_glide_confnum>
12

> <i_i_glide_posenum>
350

> <r_i_glide_eff_state_penalty>
0

> <r_glide_res:A132_vdw>
-3.43361053677776

> <r_glide_res:A132_coul>
-26.7683356361486

> <r_glide_res:A132_hbond>
0

> <r_glide_res:A132_dist>
2.4018968084771

> <r_glide_res:A132_Eint>
-30.2019461729264

> <r_glide_res:A117_vdw>
-3.38711275666008

> <r_glide_res:A117_coul>
25.0430504783597

> <r_glide_res:A117_hbond>
0

> <r_glide_res:A117_dist>
2.19663318914803

> <r_glide_res:A117_Eint>
21.6559377216996

> <r_glide_res:A113_vdw>
-2.2874232428763

> <r_glide_res:A113_coul>
8.39755459814716

> <r_glide_res:A113_hbond>
-0.16

> <r_glide_res:A113_dist>
1.73932297297249

> <r_glide_res:A113_Eint>
5.95013135527086

> <r_glide_res:A82_vdw>
-1.65596011223807

> <r_glide_res:A82_coul>
-38.8819825264769

> <r_glide_res:A82_hbond>
-0.0917205993707415

> <r_glide_res:A82_dist>
2.22135210156579

> <r_glide_res:A82_Eint>
-40.6296632380857

> <r_glide_res:A42_vdw>
2.12328924253174

> <r_glide_res:A42_coul>
-55.4430622994352

> <r_glide_res:A42_hbond>
-0.404897595514958

> <r_glide_res:A42_dist>
1.76138980796817

> <r_glide_res:A42_Eint>
-53.7246706524184

> <r_glide_res:A16_vdw>
3.13828902108662

> <r_glide_res:A16_coul>
-52.643903505441

> <r_glide_res:A16_hbond>
-0.191085358357276

> <r_glide_res:A16_dist>
1.58217071671455

> <r_glide_res:A16_Eint>
-49.6966998427117

> <s_m_source_file>
ligprep_Nicaido_neutral.maegz

> <i_m_source_file_index>
7

> <i_lp_mmshare_version>
58128

> <i_f3d_flags>
0

> <s_lp_Force_Field>
S-OPLS

> <r_lp_Energy>
53.750759

> <b_lp_Chiralities_Consistent>
1

> <s_lp_Variant>
LY097964-1

> <s_epik_input>
W05IMl1jKG4xKXNbY0hdYzEvQyg9TlxPW0NIM10pQyg9TylbTkhdW0NAQEhdMkMoPU8pTihbQ0BIXTIzKUMoQyg9TylbT0hdKT1DKFtDSDJdUzMpW0NIM10=

> <s_epik_cmdline>
J2VwaWtfcHl0aG9uJywgJy1waHQnLCAnMC4wJywgJy1waCcsICc3LjQnLCAnLW50JywgJy1tYScsICc1MDAnLCAnLWltYWUnLCAnPGluZmlsZS5tYWU+JywgJy1vbWFlJywgJzxvdXRmaWxlLm1hZT4n

> <r_lp_tautomer_probability>
1

> <r_epik_Ionization_Penalty>
  0.0005

> <r_epik_Ionization_Penalty_Charging>
  0.0000

> <r_epik_Ionization_Penalty_Neutral>
  0.0005

> <r_epik_State_Penalty>
  0.0000

> <r_epik_Charging_Adjusted_Penalty>
1.64985111359435e-05

> <i_epik_Tot_Q>
-1

> <i_epik_Tot_abs_Q>
1

> <s_epik_Chemistry_Notes>
This compound has an imine and may undergo hydrolysis. This compound contains an acetal/aminal-like group ( X-CH(R)-Y where X, Y are N, S, or O) that may be acid/base labile, releasing an aldehyde.

> <s_m_subgroup_title>
glide-dock_Nicaido_neutral_pv1

> <s_m_subgroupid>
glide-dock_Nicaido_neutral_pv1

> <b_m_subgroup_collapsed>
0

$$$$
Cefacetrile
                    3D
 Schrodinger Suite 2022-2.
 35 36  0  0  1  0            999 V2000
  -28.0852  -23.1282  -17.9723 C   0  0  0  0  0  0
  -27.5873  -22.9846  -19.4007 C   0  0  0  0  0  0
  -27.7011  -21.7284  -19.8542 O   0  0  0  0  0  0
  -27.3065  -21.3867  -21.1753 C   0  0  0  0  0  0
  -28.4858  -20.8560  -21.9828 C   0  0  0  0  0  0
  -29.0066  -21.4885  -23.0705 C   0  0  0  0  0  0
  -30.0620  -20.9371  -23.8264 N   0  0  0  0  0  0
  -30.9637  -19.9317  -23.2933 C   0  0  2  0  0  0
  -31.6379  -19.8820  -24.6786 C   0  0  2  0  0  0
  -30.7055  -21.0636  -25.0499 C   0  0  0  0  0  0
  -30.5443  -21.7957  -26.0065 O   0  0  0  0  0  0
  -31.3402  -18.6477  -25.4062 N   0  0  0  0  0  0
  -31.7375  -18.3958  -26.6626 C   0  0  0  0  0  0
  -31.2836  -17.0882  -27.2962 C   0  0  0  0  0  0
  -32.3359  -16.0570  -27.2494 C   0  0  0  0  0  0
  -33.1686  -15.2508  -27.2210 N   0  0  0  0  0  0
  -32.4208  -19.1805  -27.3190 O   0  0  0  0  0  0
  -29.9833  -18.5602  -22.6281 S   0  0  0  0  0  0
  -28.9940  -19.5171  -21.4473 C   0  0  0  0  0  0
  -28.3862  -22.8066  -23.6363 C   0  0  0  0  0  0
  -28.3677  -23.8168  -22.8919 O   0  5  0  0  0  0
  -27.9689  -22.7498  -24.8133 O   0  0  0  0  0  0
  -27.1300  -23.9495  -20.0172 O   0  0  0  0  0  0
  -27.6447  -22.3628  -17.3336 H   0  0  0  0  0  0
  -29.1687  -23.0182  -17.9407 H   0  0  0  0  0  0
  -27.8258  -24.1058  -17.5668 H   0  0  0  0  0  0
  -26.8065  -22.2125  -21.6797 H   0  0  0  0  0  0
  -26.5578  -20.5969  -21.1089 H   0  0  0  0  0  0
  -31.6084  -20.3585  -22.5227 H   0  0  0  0  0  0
  -32.7005  -20.1249  -24.6321 H   0  0  0  0  0  0
  -30.7748  -17.9651  -24.9157 H   0  0  0  0  0  0
  -31.0326  -17.2594  -28.3432 H   0  0  0  0  0  0
  -30.3696  -16.7492  -26.8112 H   0  0  0  0  0  0
  -29.5690  -19.6991  -20.5425 H   0  0  0  0  0  0
  -28.1505  -18.8910  -21.1543 H   0  0  0  0  0  0
  1  2  1  0  0  0
  1 24  1  0  0  0
  1 25  1  0  0  0
  1 26  1  0  0  0
  2  3  1  0  0  0
  2 23  2  0  0  0
  3  4  1  0  0  0
  4  5  1  0  0  0
  4 27  1  0  0  0
  4 28  1  0  0  0
  5 19  1  0  0  0
  5  6  2  0  0  0
  6  7  1  0  0  0
  6 20  1  0  0  0
  7 10  1  0  0  0
  7  8  1  0  0  0
  8  9  1  0  0  0
  8 18  1  0  0  0
  8 29  1  0  0  0
  9 10  1  0  0  0
  9 12  1  0  0  0
  9 30  1  0  0  0
 10 11  2  0  0  0
 12 13  1  0  0  0
 12 31  1  0  0  0
 13 14  1  0  0  0
 13 17  2  0  0  0
 14 15  1  0  0  0
 14 32  1  0  0  0
 14 33  1  0  0  0
 15 16  3  0  0  0
 18 19  1  0  0  0
 19 34  1  0  0  0
 19 35  1  0  0  0
 20 21  1  0  0  0
 20 22  2  0  0  0
M  CHG  1  21  -1
M  END
> <s_m_entry_id>
27429

> <s_m_entry_name>
data_maestro.1

> <s_m_Source_Path>
C:\Users\olshana1\Git\GramNeg-Accumulation\Gram Negative Permeation - OmpF

> <s_m_Source_File>
data_maestro.csv

> <i_m_Source_File_Index>
1

> <s_m_job_name>
glide-dock_Nicaido_neutral

> <s_i_glide_gridfile>
3POX-grid

> <i_i_glide_lignum>
1

> <i_i_glide_rotatable_bonds>
7

> <r_i_docking_score>
-5.02080483599472

> <r_i_glide_ligand_efficiency>
-0.218295862434553

> <r_i_glide_ligand_efficiency_sa>
-0.620804394367003

> <r_i_glide_ligand_efficiency_ln>
-1.21407613548473

> <r_i_glide_gscore>
-5.02080483599472

> <r_i_glide_lipo>
0

> <r_i_glide_hbond>
-0.855481080364997

> <r_i_glide_metal>
0

> <r_i_glide_rewards>
-1.10238105261602

> <r_i_glide_evdw>
-24.579963684082

> <r_i_glide_ecoul>
-13.4767456054688

> <r_i_glide_erotb>
0.660867222788296

> <r_i_glide_esite>
-0.473299900777586

> <r_i_glide_emodel>
-62.0984588085816

> <r_i_glide_energy>
-38.0567092895508

> <r_i_glide_einternal>
2.794762134552

> <i_i_glide_confnum>
18

> <i_i_glide_posenum>
137

> <r_i_glide_eff_state_penalty>
0

> <r_glide_res:A132_vdw>
-1.49574304463826

> <r_glide_res:A132_coul>
-36.408963590367

> <r_glide_res:A132_hbond>
-0.218677313912249

> <r_glide_res:A132_dist>
2.12152262415692

> <r_glide_res:A132_Eint>
-38.1233839489175

> <r_glide_res:A117_vdw>
-2.85773916090052

> <r_glide_res:A117_coul>
19.6919484772103

> <r_glide_res:A117_hbond>
0

> <r_glide_res:A117_dist>
2.7108095121622

> <r_glide_res:A117_Eint>
16.8342093163098

> <r_glide_res:A113_vdw>
-2.73864569223721

> <r_glide_res:A113_coul>
18.9857012609493

> <r_glide_res:A113_hbond>
0

> <r_glide_res:A113_dist>
2.30747496497797

> <r_glide_res:A113_Eint>
16.2470555687121

> <r_glide_res:A82_vdw>
-0.977143308492635

> <r_glide_res:A82_coul>
-47.4415476681829

> <r_glide_res:A82_hbond>
-0.276583814117135

> <r_glide_res:A82_dist>
2.01024169017891

> <r_glide_res:A82_Eint>
-48.6952747907926

> <r_glide_res:A42_vdw>
1.20728597487169

> <r_glide_res:A42_coul>
-50.7026196129963

> <r_glide_res:A42_hbond>
-0.26257154081614

> <r_glide_res:A42_dist>
1.76592312282345

> <r_glide_res:A42_Eint>
-49.7579051789407

> <r_glide_res:A16_vdw>
-1.1821968462512

> <r_glide_res:A16_coul>
-36.4566222378018

> <r_glide_res:A16_hbond>
-0.0976484115194732

> <r_glide_res:A16_dist>
2.22065511435544

> <r_glide_res:A16_Eint>
-37.7364674955725

> <s_m_source_file>
ligprep_Nicaido_neutral.maegz

> <i_m_source_file_index>
1

> <i_lp_mmshare_version>
58128

> <i_f3d_flags>
0

> <s_lp_Force_Field>
S-OPLS

> <r_lp_Energy>
24.277434

> <b_lp_Chiralities_Consistent>
1

> <s_lp_Variant>
Cefacetrile-1

> <s_epik_input>
W0NIM11DKD1PKU9bQ0gyXUMoPUMxQyg9TylbT0hdKVtDSDJdU1tDQEhdKE4xMilbQ0BIXShDMj1PKVtOSF1DKD1PKVtDSDJdQyNO

> <s_epik_cmdline>
J2VwaWtfcHl0aG9uJywgJy1waHQnLCAnMC4wJywgJy1waCcsICc3LjQnLCAnLW50JywgJy1tYScsICc1MDAnLCAnLWltYWUnLCAnPGluZmlsZS5tYWU+JywgJy1vbWFlJywgJzxvdXRmaWxlLm1hZT4n

> <r_lp_tautomer_probability>
1

> <r_epik_Ionization_Penalty>
  0.0000

> <r_epik_Ionization_Penalty_Charging>
  0.0000

> <r_epik_Ionization_Penalty_Neutral>
  0.0000

> <r_epik_State_Penalty>
  0.0000

> <r_epik_Charging_Adjusted_Penalty>
5.96156609429709e-06

> <i_epik_Tot_Q>
-1

> <i_epik_Tot_abs_Q>
1

> <s_epik_Chemistry_Notes>
This compound has an ester and may undergo hydrolysis at high or low pH. This compound contains an acetal/aminal-like group ( X-CH(R)-Y where X, Y are N, S, or O) that may be acid/base labile, releasing an aldehyde.

> <s_m_subgroup_title>
glide-dock_Nicaido_neutral_pv1

> <s_m_subgroupid>
glide-dock_Nicaido_neutral_pv1

> <b_m_subgroup_collapsed>
0

$$$$
Ampicillin
                    3D
 Schrodinger Suite 2022-2.
 42 44  0  0  1  0            999 V2000
  -32.7058  -20.0913  -25.1690 C   0  0  0  0  0  0
  -31.4720  -19.9082  -24.2604 C   0  0  0  0  0  0
  -30.5152  -21.1546  -24.1416 C   0  0  2  0  0  0
  -29.1835  -20.5686  -24.1992 N   0  0  0  0  0  0
  -28.8927  -19.1495  -24.1395 C   0  0  2  0  0  0
  -30.4248  -18.5412  -24.9029 S   0  0  0  0  0  0
  -27.5655  -19.4351  -24.8663 C   0  0  2  0  0  0
  -28.0012  -20.8955  -24.8090 C   0  0  0  0  0  0
  -27.5689  -21.9496  -25.2134 O   0  0  0  0  0  0
  -26.4200  -19.1496  -24.0134 N   0  0  0  0  0  0
  -25.2375  -19.7887  -23.9536 C   0  0  0  0  0  0
  -24.2730  -19.3239  -22.8509 C   0  0  2  0  0  0
  -24.8335  -19.9363  -21.6019 C   0  0  0  0  0  0
  -25.9139  -19.3673  -20.8788 C   0  0  0  0  0  0
  -26.4402  -19.9878  -19.7301 C   0  0  0  0  0  0
  -25.8791  -21.1849  -19.2551 C   0  0  0  0  0  0
  -24.7967  -21.7612  -19.9421 C   0  0  0  0  0  0
  -24.2886  -21.1432  -21.1019 C   0  0  0  0  0  0
  -24.1924  -17.8689  -22.8134 N   0  0  0  0  0  0
  -24.9145  -20.7085  -24.7067 O   0  0  0  0  0  0
  -30.6416  -22.2711  -25.2072 C   0  0  0  0  0  0
  -30.6834  -23.4561  -24.8060 O   0  5  0  0  0  0
  -30.5503  -21.9496  -26.4134 O   0  0  0  0  0  0
  -31.9637  -19.5058  -22.8553 C   0  0  0  0  0  0
  -33.3032  -20.9494  -24.8598 H   0  0  0  0  0  0
  -33.3508  -19.2129  -25.1309 H   0  0  0  0  0  0
  -32.4293  -20.2291  -26.2135 H   0  0  0  0  0  0
  -30.6327  -21.6258  -23.1646 H   0  0  0  0  0  0
  -28.7814  -18.7768  -23.1187 H   0  0  0  0  0  0
  -27.5135  -18.9895  -25.8601 H   0  0  0  0  0  0
  -26.5452  -18.3751  -23.3719 H   0  0  0  0  0  0
  -23.2795  -19.7146  -23.0753 H   0  0  0  0  0  0
  -26.3689  -18.4467  -21.2134 H   0  0  0  0  0  0
  -27.2788  -19.5436  -19.2134 H   0  0  0  0  0  0
  -26.2789  -21.6527  -18.3668 H   0  0  0  0  0  0
  -24.3564  -22.6779  -19.5799 H   0  0  0  0  0  0
  -23.4614  -21.6054  -21.6201 H   0  0  0  0  0  0
  -24.3689  -17.4804  -23.7472 H   0  0  0  0  0  0
  -24.8852  -17.4664  -22.1991 H   0  0  0  0  0  0
  -32.5993  -20.2778  -22.4203 H   0  0  0  0  0  0
  -31.1316  -19.3447  -22.1684 H   0  0  0  0  0  0
  -32.5408  -18.5808  -22.8838 H   0  0  0  0  0  0
  1  2  1  0  0  0
  1 25  1  0  0  0
  1 26  1  0  0  0
  1 27  1  0  0  0
  2  6  1  0  0  0
  2  3  1  0  0  0
  2 24  1  0  0  0
  3  4  1  0  0  0
  3 21  1  0  0  0
  3 28  1  0  0  0
  4  8  1  0  0  0
  4  5  1  0  0  0
  5  6  1  0  0  0
  5  7  1  0  0  0
  5 29  1  0  0  0
  7  8  1  0  0  0
  7 10  1  0  0  0
  7 30  1  0  0  0
  8  9  2  0  0  0
 10 11  1  0  0  0
 10 31  1  0  0  0
 11 12  1  0  0  0
 11 20  2  0  0  0
 12 13  1  0  0  0
 12 19  1  0  0  0
 12 32  1  0  0  0
 13 18  1  0  0  0
 13 14  2  0  0  0
 14 15  1  0  0  0
 14 33  1  0  0  0
 15 16  2  0  0  0
 15 34  1  0  0  0
 16 17  1  0  0  0
 16 35  1  0  0  0
 17 18  2  0  0  0
 17 36  1  0  0  0
 18 37  1  0  0  0
 19 38  1  0  0  0
 19 39  1  0  0  0
 21 22  1  0  0  0
 21 23  2  0  0  0
 24 40  1  0  0  0
 24 41  1  0  0  0
 24 42  1  0  0  0
M  CHG  1  22  -1
M  END
> <s_m_entry_id>
27430

> <s_m_entry_name>
data_maestro.18

> <s_m_Source_Path>
C:\Users\olshana1\Git\GramNeg-Accumulation\Gram Negative Permeation - OmpF

> <s_m_Source_File>
data_maestro.csv

> <i_m_Source_File_Index>
18

> <s_m_job_name>
glide-dock_Nicaido_neutral

> <s_i_glide_gridfile>
3POX-grid

> <i_i_glide_lignum>
23

> <i_i_glide_rotatable_bonds>
5

> <r_i_docking_score>
-5.01959798319853

> <r_i_glide_ligand_efficiency>
-0.209149915966605

> <r_i_glide_ligand_efficiency_sa>
-0.603292752226235

> <r_i_glide_ligand_efficiency_ln>
-1.20142013172207

> <r_i_glide_gscore>
-5.12549798319853

> <r_i_glide_lipo>
0

> <r_i_glide_hbond>
-0.844692269257241

> <r_i_glide_metal>
0

> <r_i_glide_rewards>
-1.03346769818237

> <r_i_glide_evdw>
-20.2029285430908

> <r_i_glide_ecoul>
-15.3661365509033

> <r_i_glide_erotb>
0.470487855572594

> <r_i_glide_esite>
-0.40275896154147

> <r_i_glide_emodel>
-57.8500121942412

> <r_i_glide_energy>
-35.5690650939941

> <r_i_glide_einternal>
3.1577160358429

> <i_i_glide_confnum>
8

> <i_i_glide_posenum>
231

> <r_i_glide_eff_state_penalty>
0.1059

> <r_glide_res:A132_vdw>
-0.41751718040166

> <r_glide_res:A132_coul>
-23.4769440648119

> <r_glide_res:A132_hbond>
0

> <r_glide_res:A132_dist>
3.68660238349479

> <r_glide_res:A132_Eint>
-23.8944612452136

> <r_glide_res:A117_vdw>
-5.00920457768552

> <r_glide_res:A117_coul>
9.10116278459835

> <r_glide_res:A117_hbond>
-0.456

> <r_glide_res:A117_dist>
1.76702280863689

> <r_glide_res:A117_Eint>
3.63595820691283

> <r_glide_res:A113_vdw>
-1.25242340213458

> <r_glide_res:A113_coul>
18.606152041957

> <r_glide_res:A113_hbond>
0

> <r_glide_res:A113_dist>
3.56020076617523

> <r_glide_res:A113_Eint>
17.3537286398224

> <r_glide_res:A82_vdw>
-1.24914283271223

> <r_glide_res:A82_coul>
-37.5894562172736

> <r_glide_res:A82_hbond>
0

> <r_glide_res:A82_dist>
2.82070533156722

> <r_glide_res:A82_Eint>
-38.8385990499858

> <r_glide_res:A42_vdw>
1.99459256073756

> <r_glide_res:A42_coul>
-55.0239392007416

> <r_glide_res:A42_hbond>
-0.228489366562644

> <r_glide_res:A42_dist>
1.58852460639671

> <r_glide_res:A42_Eint>
-53.2578360065667

> <r_glide_res:A16_vdw>
0.105805193947062

> <r_glide_res:A16_coul>
-50.429269851998

> <r_glide_res:A16_hbond>
-0.160202902694596

> <r_glide_res:A16_dist>
1.89724465250552

> <r_glide_res:A16_Eint>
-50.4836675607455

> <s_m_source_file>
ligprep_Nicaido_neutral.maegz

> <i_m_source_file_index>
18

> <i_lp_mmshare_version>
58128

> <i_f3d_flags>
0

> <s_lp_Force_Field>
S-OPLS

> <r_lp_Energy>
33.736216

> <b_lp_Chiralities_Consistent>
1

> <s_lp_Variant>
Ampicillin-1

> <s_epik_input>
W09IXUMoPU8pW0NAQEhdMUMoW0NIM10pKFtDSDNdKVNbQ0BASF0oTjEyKVtDQEhdKEMyPU8pW05IXUMoPU8pW0NAQEhdKFtOSDJdKWMzW2NIXVtjSF1bY0hdW2NIXVtjSF0z

> <s_epik_cmdline>
J2VwaWtfcHl0aG9uJywgJy1waHQnLCAnMC4wJywgJy1waCcsICc3LjQnLCAnLW50JywgJy1tYScsICc1MDAnLCAnLWltYWUnLCAnPGluZmlsZS5tYWU+JywgJy1vbWFlJywgJzxvdXRmaWxlLm1hZT4n

> <r_epik_Ionization_Penalty>
  0.1060

> <r_epik_Ionization_Penalty_Charging>
  0.0000

> <r_epik_Ionization_Penalty_Neutral>
  0.1059

> <r_epik_State_Penalty>
  0.1059

> <r_epik_Charging_Adjusted_Penalty>
0.105949346496876

> <i_epik_Tot_Q>
-1

> <i_epik_Tot_abs_Q>
1

> <s_epik_Chemistry_Notes>
This compound contains an acetal/aminal-like group ( X-CH(R)-Y where X, Y are N, S, or O) that may be acid/base labile, releasing an aldehyde.

> <s_m_subgroup_title>
glide-dock_Nicaido_neutral_pv1

> <s_m_subgroupid>
glide-dock_Nicaido_neutral_pv1

> <b_m_subgroup_collapsed>
0

$$$$
Ceftriaxone
                    3D
 Schrodinger Suite 2022-2.
 52 55  0  0  1  0            999 V2000
  -20.9666  -24.2635  -21.9807 C   0  0  0  0  0  0
  -22.0021  -23.7863  -22.8880 N   0  0  0  0  0  0
  -22.1578  -22.4015  -23.1788 C   0  0  0  0  0  0
  -21.2729  -21.2624  -22.0471 S   0  0  0  0  0  0
  -22.1518  -21.4029  -20.4506 C   0  0  0  0  0  0
  -23.6818  -21.3553  -20.5300 C   0  0  0  0  0  0
  -24.5077  -22.3488  -20.0892 C   0  0  0  0  0  0
  -25.9128  -22.2642  -20.2118 N   0  0  0  0  0  0
  -26.6214  -21.0075  -20.3809 C   0  0  2  0  0  0
  -27.9247  -21.8242  -20.5139 C   0  0  2  0  0  0
  -27.0580  -23.0349  -20.0768 C   0  0  0  0  0  0
  -27.2466  -24.1886  -19.7520 O   0  0  0  0  0  0
  -28.4088  -21.8223  -21.8996 N   0  0  0  0  0  0
  -29.0136  -22.8174  -22.5766 C   0  0  0  0  0  0
  -29.4978  -22.4376  -23.9654 C   0  0  0  0  0  0
  -28.9992  -21.1443  -24.4977 C   0  0  0  0  0  0
  -29.8201  -20.0450  -24.5842 C   0  0  0  0  0  0
  -28.9868  -18.6674  -25.2428 S   0  0  0  0  0  0
  -27.5378  -19.6499  -25.3654 C   0  0  0  0  0  0
  -26.3677  -19.1497  -25.8956 N   0  0  0  0  0  0
  -27.6975  -20.9088  -24.9562 N   0  0  0  0  0  0
  -30.2789  -23.2148  -24.6078 N   0  0  0  0  0  0
  -30.6129  -22.7434  -25.8885 O   0  0  0  0  0  0
  -31.7384  -23.4821  -26.3351 C   0  0  0  0  0  0
  -29.1779  -23.9595  -22.1422 O   0  0  0  0  0  0
  -25.8726  -20.1135  -21.7755 S   0  0  0  0  0  0
  -24.1959  -20.0331  -21.1083 C   0  0  0  0  0  0
  -23.9664  -23.6963  -19.4813 C   0  0  0  0  0  0
  -23.1903  -23.6099  -18.5025 O   0  5  0  0  0  0
  -24.3683  -24.7494  -20.0172 O   0  0  0  0  0  0
  -22.8225  -21.9312  -24.1940 N   0  0  0  0  0  0
  -23.4724  -22.8206  -25.0427 C   0  0  0  0  0  0
  -23.5668  -24.3186  -24.6059 C   0  0  0  0  0  0
  -24.3590  -25.0409  -25.2150 O   0  0  0  0  0  0
  -22.7680  -24.7505  -23.5971 N   0  5  0  0  0  0
  -23.9686  -22.4893  -26.1173 O   0  0  0  0  0  0
  -21.2907  -24.1773  -20.9465 H   0  0  0  0  0  0
  -20.7585  -25.3174  -22.1603 H   0  0  0  0  0  0
  -20.0313  -23.7199  -22.1111 H   0  0  0  0  0  0
  -21.8300  -20.5677  -19.8291 H   0  0  0  0  0  0
  -21.7711  -22.2856  -19.9493 H   0  0  0  0  0  0
  -26.5886  -20.4120  -19.4654 H   0  0  0  0  0  0
  -28.6804  -21.5139  -19.7898 H   0  0  0  0  0  0
  -28.2956  -20.9374  -22.3761 H   0  0  0  0  0  0
  -30.8563  -19.9572  -24.2924 H   0  0  0  0  0  0
  -25.5021  -19.5876  -25.6161 H   0  0  0  0  0  0
  -26.2758  -18.1352  -26.0101 H   0  0  0  0  0  0
  -32.0242  -23.1524  -27.3329 H   0  0  0  0  0  0
  -31.5255  -24.5508  -26.3861 H   0  0  0  0  0  0
  -32.5961  -23.3318  -25.6760 H   0  0  0  0  0  0
  -24.1635  -19.2781  -20.3224 H   0  0  0  0  0  0
  -23.5524  -19.6795  -21.9126 H   0  0  0  0  0  0
  1  2  1  0  0  0
  1 37  1  0  0  0
  1 38  1  0  0  0
  1 39  1  0  0  0
  2 35  1  0  0  0
  2  3  1  0  0  0
  3  4  1  0  0  0
  3 31  2  0  0  0
  4  5  1  0  0  0
  5  6  1  0  0  0
  5 40  1  0  0  0
  5 41  1  0  0  0
  6 27  1  0  0  0
  6  7  2  0  0  0
  7  8  1  0  0  0
  7 28  1  0  0  0
  8 11  1  0  0  0
  8  9  1  0  0  0
  9 10  1  0  0  0
  9 26  1  0  0  0
  9 42  1  0  0  0
 10 11  1  0  0  0
 10 13  1  0  0  0
 10 43  1  0  0  0
 11 12  2  0  0  0
 13 14  1  0  0  0
 13 44  1  0  0  0
 14 15  1  0  0  0
 14 25  2  0  0  0
 15 16  1  0  0  0
 15 22  2  3  0  0
 16 21  1  0  0  0
 16 17  2  0  0  0
 17 18  1  0  0  0
 17 45  1  0  0  0
 18 19  1  0  0  0
 19 20  1  0  0  0
 19 21  2  0  0  0
 20 46  1  0  0  0
 20 47  1  0  0  0
 22 23  1  0  0  0
 23 24  1  0  0  0
 24 48  1  0  0  0
 24 49  1  0  0  0
 24 50  1  0  0  0
 26 27  1  0  0  0
 27 51  1  0  0  0
 27 52  1  0  0  0
 28 29  1  0  0  0
 28 30  2  0  0  0
 31 32  1  0  0  0
 32 33  1  0  0  0
 32 36  2  0  0  0
 33 34  2  0  0  0
 33 35  1  0  0  0
M  CHG  2  29  -1  35  -1
M  END
> <s_m_entry_id>
27431

> <s_m_entry_name>
data_maestro.22

> <s_m_Source_Path>
C:\Users\olshana1\Git\GramNeg-Accumulation\Gram Negative Permeation - OmpF

> <s_m_Source_File>
data_maestro.csv

> <i_m_Source_File_Index>
22

> <s_m_job_name>
glide-dock_Nicaido_neutral

> <s_i_glide_gridfile>
3POX-grid

> <i_i_glide_lignum>
28

> <i_i_glide_rotatable_bonds>
9

> <r_i_docking_score>
-5.01276163967064

> <r_i_glide_ligand_efficiency>
-0.13924337887974

> <r_i_glide_ligand_efficiency_sa>
-0.459771506401972

> <r_i_glide_ligand_efficiency_ln>
-1.0936491606074

> <r_i_glide_gscore>
-5.01276163967064

> <r_i_glide_lipo>
0

> <r_i_glide_hbond>
-0.996786066669511

> <r_i_glide_metal>
0

> <r_i_glide_rewards>
0.0156686347225034

> <r_i_glide_evdw>
-28.4255027770996

> <r_i_glide_ecoul>
-15.1054277420044

> <r_i_glide_erotb>
0.472124986767549

> <r_i_glide_esite>
-0.816679894335543

> <r_i_glide_emodel>
-72.3339082182707

> <r_i_glide_energy>
-43.530930519104

> <r_i_glide_einternal>
11.821216583252

> <i_i_glide_confnum>
162

> <i_i_glide_posenum>
270

> <r_i_glide_eff_state_penalty>
0

> <r_glide_res:A132_vdw>
-0.742789085880338

> <r_glide_res:A132_coul>
-79.4281894494491

> <r_glide_res:A132_hbond>
-0.312479957459333

> <r_glide_res:A132_dist>
1.95037673749791

> <r_glide_res:A132_Eint>
-80.4834584927888

> <r_glide_res:A117_vdw>
-2.65740807682416

> <r_glide_res:A117_coul>
32.1193651612229

> <r_glide_res:A117_hbond>
-0.229692766913363

> <r_glide_res:A117_dist>
1.88136413229719

> <r_glide_res:A117_Eint>
29.2322643174854

> <r_glide_res:A113_vdw>
-1.80409198502427

> <r_glide_res:A113_coul>
31.1074780108995

> <r_glide_res:A113_hbond>
0

> <r_glide_res:A113_dist>
2.97090690504663

> <r_glide_res:A113_Eint>
29.3033860258752

> <r_glide_res:A82_vdw>
-3.504492030971

> <r_glide_res:A82_coul>
-67.3757477951257

> <r_glide_res:A82_hbond>
-0.183385085195447

> <r_glide_res:A82_dist>
2.22965022894393

> <r_glide_res:A82_Eint>
-71.0636249112922

> <r_glide_res:A42_vdw>
-2.36185859041526

> <r_glide_res:A42_coul>
-60.0927118019392

> <r_glide_res:A42_hbond>
-0.0712282571013679

> <r_glide_res:A42_dist>
1.99731440555083

> <r_glide_res:A42_Eint>
-62.5257986494558

> <r_glide_res:A16_vdw>
-1.54853304236503

> <r_glide_res:A16_coul>
-35.0236394631255

> <r_glide_res:A16_hbond>
0

> <r_glide_res:A16_dist>
2.56248410670058

> <r_glide_res:A16_Eint>
-36.5721725054906

> <s_m_source_file>
ligprep_Nicaido_neutral.maegz

> <i_m_source_file_index>
22

> <i_lp_mmshare_version>
58128

> <i_f3d_flags>
0

> <s_lp_Force_Field>
S-OPLS

> <r_lp_Energy>
109.903222

> <b_lp_Chiralities_Consistent>
1

> <s_lp_Variant>
Ceftriaxone-1

> <s_epik_input>
W09IXWMobjEpYyg9TyluYyhuMVtDSDNdKVNbQ0gyXUMoPUMyQyg9TylbT0hdKVtDSDJdU1tDQEhdKE4yMylbQ0BIXShDMz1PKVtOSF1DKD1PKS9DKD1OL09bQ0gzXSljNFtjSF1zYyhuNClbTkgyXQ==

> <s_epik_cmdline>
J2VwaWtfcHl0aG9uJywgJy1waHQnLCAnMC4wJywgJy1waCcsICc3LjQnLCAnLW50JywgJy1tYScsICc1MDAnLCAnLWltYWUnLCAnPGluZmlsZS5tYWU+JywgJy1vbWFlJywgJzxvdXRmaWxlLm1hZT4n

> <r_lp_tautomer_probability>
1

> <r_epik_Ionization_Penalty>
  0.0014

> <r_epik_Ionization_Penalty_Charging>
  0.0010

> <r_epik_Ionization_Penalty_Neutral>
  0.0004

> <r_epik_State_Penalty>
  0.0000

> <r_epik_Charging_Adjusted_Penalty>
0.000994184415634904

> <i_epik_Tot_Q>
-2

> <i_epik_Tot_abs_Q>
2

> <s_epik_Chemistry_Notes>
This compound has an imine and may undergo hydrolysis. This compound contains an acetal/aminal-like group ( X-CH(R)-Y where X, Y are N, S, or O) that may be acid/base labile, releasing an aldehyde.

> <s_m_subgroup_title>
glide-dock_Nicaido_neutral_pv1

> <s_m_subgroupid>
glide-dock_Nicaido_neutral_pv1

> <b_m_subgroup_collapsed>
0

$$$$
Cyclacillin
                    3D
 Schrodinger Suite 2022-2.
 46 48  0  0  1  0            999 V2000
  -29.3626  -18.9013  -25.9336 C   0  0  0  0  0  0
  -30.5383  -19.2056  -24.9796 C   0  0  0  0  0  0
  -30.7495  -20.7297  -24.6556 C   0  0  2  0  0  0
  -30.0263  -20.9380  -23.4202 N   0  0  0  0  0  0
  -29.8676  -19.9231  -22.3998 C   0  0  2  0  0  0
  -30.1227  -18.4126  -23.3795 S   0  0  0  0  0  0
  -28.5109  -20.5613  -22.0855 C   0  0  2  0  0  0
  -29.0181  -21.7390  -22.9413 C   0  0  0  0  0  0
  -28.6642  -22.8741  -23.1978 O   0  0  0  0  0  0
  -28.3593  -20.8814  -20.6740 N   0  0  0  0  0  0
  -27.3772  -21.6658  -20.1936 C   0  0  0  0  0  0
  -27.2699  -21.8812  -18.6623 C   0  0  0  0  0  0
  -27.4062  -23.3822  -18.2866 C   0  0  0  0  0  0
  -26.1696  -24.2422  -18.6176 C   0  0  0  0  0  0
  -24.8902  -23.6439  -18.0132 C   0  0  0  0  0  0
  -24.6918  -22.1875  -18.4531 C   0  0  0  0  0  0
  -25.9237  -21.3266  -18.1136 C   0  0  0  0  0  0
  -28.3689  -21.1496  -18.0134 N   0  3  0  0  0  0
  -26.5713  -22.2157  -20.9458 O   0  0  0  0  0  0
  -30.3763  -21.7253  -25.7712 C   0  0  0  0  0  0
  -31.3114  -22.2464  -26.4133 O   0  5  0  0  0  0
  -29.1691  -21.9496  -26.0144 O   0  0  0  0  0  0
  -31.8252  -18.5818  -25.5453 C   0  0  0  0  0  0
  -29.5460  -19.2759  -26.9396 H   0  0  0  0  0  0
  -28.4314  -19.3401  -25.5735 H   0  0  0  0  0  0
  -29.1965  -17.8262  -26.0186 H   0  0  0  0  0  0
  -31.7965  -20.9024  -24.4039 H   0  0  0  0  0  0
  -30.6082  -20.0068  -21.6001 H   0  0  0  0  0  0
  -27.6757  -20.0040  -22.5138 H   0  0  0  0  0  0
  -29.0367  -20.4555  -20.0530 H   0  0  0  0  0  0
  -27.5881  -23.4671  -17.2139 H   0  0  0  0  0  0
  -28.2871  -23.8112  -18.7669 H   0  0  0  0  0  0
  -26.3167  -25.2511  -18.2296 H   0  0  0  0  0  0
  -26.0537  -24.3472  -19.6948 H   0  0  0  0  0  0
  -24.9453  -23.6870  -16.9236 H   0  0  0  0  0  0
  -24.0241  -24.2404  -18.3024 H   0  0  0  0  0  0
  -23.8130  -21.7721  -17.9576 H   0  0  0  0  0  0
  -24.4741  -22.1463  -19.5194 H   0  0  0  0  0  0
  -25.7599  -20.3088  -18.4723 H   0  0  0  0  0  0
  -25.9692  -21.2454  -17.0265 H   0  0  0  0  0  0
  -28.2942  -21.2871  -17.0152 H   0  0  0  0  0  0
  -28.2883  -20.1582  -18.2043 H   0  0  0  0  0  0
  -32.1136  -19.0538  -26.4844 H   0  0  0  0  0  0
  -32.6577  -18.6899  -24.8493 H   0  0  0  0  0  0
  -31.6953  -17.5153  -25.7325 H   0  0  0  0  0  0
  -29.2862  -21.4683  -18.3259 H   0  0  0  0  0  0
  1  2  1  0  0  0
  1 24  1  0  0  0
  1 25  1  0  0  0
  1 26  1  0  0  0
  2  6  1  0  0  0
  2  3  1  0  0  0
  2 23  1  0  0  0
  3  4  1  0  0  0
  3 20  1  0  0  0
  3 27  1  0  0  0
  4  8  1  0  0  0
  4  5  1  0  0  0
  5  6  1  0  0  0
  5  7  1  0  0  0
  5 28  1  0  0  0
  7  8  1  0  0  0
  7 10  1  0  0  0
  7 29  1  0  0  0
  8  9  2  0  0  0
 10 11  1  0  0  0
 10 30  1  0  0  0
 11 12  1  0  0  0
 11 19  2  0  0  0
 12 17  1  0  0  0
 12 13  1  0  0  0
 12 18  1  0  0  0
 13 14  1  0  0  0
 13 31  1  0  0  0
 13 32  1  0  0  0
 14 15  1  0  0  0
 14 33  1  0  0  0
 14 34  1  0  0  0
 15 16  1  0  0  0
 15 35  1  0  0  0
 15 36  1  0  0  0
 16 17  1  0  0  0
 16 37  1  0  0  0
 16 38  1  0  0  0
 17 39  1  0  0  0
 17 40  1  0  0  0
 18 41  1  0  0  0
 18 42  1  0  0  0
 18 46  1  0  0  0
 20 21  1  0  0  0
 20 22  2  0  0  0
 23 43  1  0  0  0
 23 44  1  0  0  0
 23 45  1  0  0  0
M  CHG  2  18   1  21  -1
M  END
> <s_m_entry_id>
27432

> <s_m_entry_name>
data_maestro.19

> <s_m_Source_Path>
C:\Users\olshana1\Git\GramNeg-Accumulation\Gram Negative Permeation - OmpF

> <s_m_Source_File>
data_maestro.csv

> <i_m_Source_File_Index>
19

> <s_m_job_name>
glide-dock_Nicaido_neutral

> <s_i_glide_gridfile>
3POX-grid

> <i_i_glide_lignum>
24

> <i_i_glide_rotatable_bonds>
4

> <r_i_docking_score>
-5.01236782090703

> <r_i_glide_ligand_efficiency>
-0.21792903569161

> <r_i_glide_ligand_efficiency_sa>
-0.61976118790651

> <r_i_glide_ligand_efficiency_ln>
-1.2120359887339

> <r_i_glide_gscore>
-5.21566782090703

> <r_i_glide_lipo>
0

> <r_i_glide_hbond>
-0.505871401603646

> <r_i_glide_metal>
0

> <r_i_glide_rewards>
-1.08112293656019

> <r_i_glide_evdw>
-25.0652008056641

> <r_i_glide_ecoul>
-15.9499425888062

> <r_i_glide_erotb>
0.487675558125352

> <r_i_glide_esite>
-0.470597612264418

> <r_i_glide_emodel>
-67.9899049828162

> <r_i_glide_energy>
-41.0151433944702

> <r_i_glide_einternal>
5.58539962768555

> <i_i_glide_confnum>
8

> <i_i_glide_posenum>
336

> <r_i_glide_eff_state_penalty>
0.2033

> <r_glide_res:A132_vdw>
-1.76298678181036

> <r_glide_res:A132_coul>
-0.020456927584616

> <r_glide_res:A132_hbond>
0

> <r_glide_res:A132_dist>
1.83845865529333

> <r_glide_res:A132_Eint>
-1.78344370939498

> <r_glide_res:A117_vdw>
-3.40139063854768

> <r_glide_res:A117_coul>
5.53332442966956

> <r_glide_res:A117_hbond>
0

> <r_glide_res:A117_dist>
2.58249564297725

> <r_glide_res:A117_Eint>
2.13193379112188

> <r_glide_res:A113_vdw>
-1.44245748972955

> <r_glide_res:A113_coul>
-43.545062831447

> <r_glide_res:A113_hbond>
-0.282495049777437

> <r_glide_res:A113_dist>
2.03911036993387

> <r_glide_res:A113_Eint>
-45.270015370954

> <r_glide_res:A82_vdw>
-1.34562160242101

> <r_glide_res:A82_coul>
-16.4998337528352

> <r_glide_res:A82_hbond>
0

> <r_glide_res:A82_dist>
2.84115146454444

> <r_glide_res:A82_Eint>
-17.8454553552562

> <r_glide_res:A42_vdw>
-0.0697317655477425

> <r_glide_res:A42_coul>
-34.7943541499748

> <r_glide_res:A42_hbond>
-0.176767432639543

> <r_glide_res:A42_dist>
1.87527444536106

> <r_glide_res:A42_Eint>
-35.040853348162

> <r_glide_res:A16_vdw>
-0.873644543907635

> <r_glide_res:A16_coul>
-34.4368454353412

> <r_glide_res:A16_hbond>
-0.0466089191866659

> <r_glide_res:A16_dist>
2.26442387695057

> <r_glide_res:A16_Eint>
-35.3570988984355

> <s_m_source_file>
ligprep_Nicaido_neutral.maegz

> <i_m_source_file_index>
19

> <i_lp_mmshare_version>
58128

> <i_f3d_flags>
0

> <s_lp_Force_Field>
S-OPLS

> <r_lp_Energy>
30.580191

> <b_lp_Chiralities_Consistent>
1

> <s_lp_Variant>
Cyclacillin-1

> <s_epik_input>
W09IXUMoPU8pW0NAQEhdMUMoW0NIM10pKFtDSDNdKVNbQ0BASF0oTjEyKVtDQEhdKEMyPU8pW05IXUMoPU8pQzMoW05IMl0pW0NIMl1bQ0gyXVtDSDJdW0NIMl1bQ0gyXTM=

> <s_epik_cmdline>
J2VwaWtfcHl0aG9uJywgJy1waHQnLCAnMC4wJywgJy1waCcsICc3LjQnLCAnLW50JywgJy1tYScsICc1MDAnLCAnLWltYWUnLCAnPGluZmlsZS5tYWU+JywgJy1vbWFlJywgJzxvdXRmaWxlLm1hZT4n

> <r_epik_Ionization_Penalty>
  0.2033

> <r_epik_Ionization_Penalty_Charging>
  0.2033

> <r_epik_Ionization_Penalty_Neutral>
  0.0000

> <r_epik_State_Penalty>
  0.2033

> <r_epik_Charging_Adjusted_Penalty>
0.406545099244061

> <i_epik_Tot_Q>
0

> <i_epik_Tot_abs_Q>
2

> <s_epik_Chemistry_Notes>
This compound contains an acetal/aminal-like group ( X-CH(R)-Y where X, Y are N, S, or O) that may be acid/base labile, releasing an aldehyde.

> <s_m_subgroup_title>
glide-dock_Nicaido_neutral_pv1

> <s_m_subgroupid>
glide-dock_Nicaido_neutral_pv1

> <b_m_subgroup_collapsed>
0

$$$$
Cefoperazone
                    3D
 Schrodinger Suite 2022-2.
 70 74  0  0  1  0            999 V2000
  -35.5972  -28.8759  -18.9495 C   0  0  0  0  0  0
  -36.5818  -27.9044  -19.6183 C   0  0  0  0  0  0
  -35.9180  -26.9663  -20.5355 N   0  0  0  0  0  0
  -36.0466  -25.5438  -20.2143 C   0  0  0  0  0  0
  -36.1917  -24.7173  -21.5011 C   0  0  0  0  0  0
  -35.1106  -24.9971  -22.4756 N   0  0  0  0  0  0
  -34.5799  -26.2681  -22.5229 C   0  0  0  0  0  0
  -35.2718  -27.3704  -21.6546 C   0  0  0  0  0  0
  -35.1937  -28.5457  -22.0168 O   0  0  0  0  0  0
  -33.6163  -26.6295  -23.2127 O   0  0  0  0  0  0
  -34.7649  -23.9486  -23.2915 C   0  0  0  0  0  0
  -33.6890  -24.1136  -24.0790 N   0  0  0  0  0  0
  -33.1635  -23.1630  -25.0507 C   0  0  2  0  0  0
  -32.9597  -23.8725  -26.3586 C   0  0  0  0  0  0
  -32.4231  -25.1842  -26.4454 C   0  0  0  0  0  0
  -32.2501  -25.8357  -27.6803 C   0  0  0  0  0  0
  -32.6168  -25.1871  -28.8719 C   0  0  0  0  0  0
  -33.1691  -23.8950  -28.8150 C   0  0  0  0  0  0
  -33.3317  -23.2486  -27.5734 C   0  0  0  0  0  0
  -32.4380  -25.8057  -30.0742 O   0  0  0  0  0  0
  -31.7656  -22.7025  -24.6123 C   0  0  0  0  0  0
  -31.5219  -21.3772  -24.6832 N   0  0  0  0  0  0
  -30.2924  -20.6442  -24.3287 C   0  0  1  0  0  0
  -29.8774  -20.8018  -22.8538 C   0  0  1  0  0  0
  -28.5834  -21.2479  -23.3340 N   0  0  0  0  0  0
  -28.9705  -21.3757  -24.6563 C   0  0  0  0  0  0
  -28.4970  -21.9498  -25.6131 O   0  0  0  0  0  0
  -27.6259  -21.7319  -22.4285 C   0  0  0  0  0  0
  -26.6762  -22.8402  -22.9865 C   0  0  0  0  0  0
  -26.7506  -23.9501  -22.4114 O   0  5  0  0  0  0
  -26.0222  -22.5822  -24.0196 O   0  0  0  0  0  0
  -27.5517  -21.2692  -21.1499 C   0  0  0  0  0  0
  -28.5191  -20.2337  -20.5653 C   0  0  0  0  0  0
  -29.5675  -19.3797  -21.7794 S   0  0  0  0  0  0
  -26.5305  -21.7667  -20.1302 C   0  0  0  0  0  0
  -27.2290  -22.9763  -18.9672 S   0  0  0  0  0  0
  -25.7085  -23.5855  -18.3224 C   0  0  0  0  0  0
  -25.1582  -24.7466  -18.6627 N   0  0  0  0  0  0
  -23.9786  -24.7772  -17.9446 N   0  0  0  0  0  0
  -23.8428  -23.7108  -17.2112 N   0  0  0  0  0  0
  -24.9332  -22.9376  -17.4403 N   0  0  0  0  0  0
  -25.0795  -21.6636  -16.7655 C   0  0  0  0  0  0
  -30.9406  -23.5349  -24.2266 O   0  0  0  0  0  0
  -35.3907  -22.8861  -23.3177 O   0  0  0  0  0  0
  -36.0574  -29.3743  -18.0960 H   0  0  0  0  0  0
  -34.7047  -28.3576  -18.6001 H   0  0  0  0  0  0
  -35.2856  -29.6535  -19.6446 H   0  0  0  0  0  0
  -37.3453  -28.4652  -20.1589 H   0  0  0  0  0  0
  -37.1122  -27.3661  -18.8331 H   0  0  0  0  0  0
  -36.9054  -25.3471  -19.5695 H   0  0  0  0  0  0
  -35.1618  -25.2228  -19.6595 H   0  0  0  0  0  0
  -37.1525  -24.9273  -21.9742 H   0  0  0  0  0  0
  -36.2237  -23.6710  -21.1937 H   0  0  0  0  0  0
  -33.2037  -24.9996  -24.0008 H   0  0  0  0  0  0
  -33.8258  -22.3028  -25.1697 H   0  0  0  0  0  0
  -32.1349  -25.7101  -25.5469 H   0  0  0  0  0  0
  -31.8438  -26.8373  -27.7000 H   0  0  0  0  0  0
  -33.4735  -23.4000  -29.7257 H   0  0  0  0  0  0
  -33.7656  -22.2596  -27.5528 H   0  0  0  0  0  0
  -32.2417  -26.7257  -29.9840 H   0  0  0  0  0  0
  -32.2949  -20.7949  -24.9690 H   0  0  0  0  0  0
  -30.3131  -19.5983  -24.6369 H   0  0  0  0  0  0
  -30.3977  -21.5980  -22.3169 H   0  0  0  0  0  0
  -29.1671  -20.7520  -19.8595 H   0  0  0  0  0  0
  -27.9732  -19.4757  -20.0019 H   0  0  0  0  0  0
  -25.6641  -22.2119  -20.6189 H   0  0  0  0  0  0
  -26.1413  -20.9160  -19.5698 H   0  0  0  0  0  0
  -25.9665  -21.1374  -17.1167 H   0  0  0  0  0  0
  -25.1700  -21.8294  -15.6910 H   0  0  0  0  0  0
  -24.2048  -21.0415  -16.9566 H   0  0  0  0  0  0
  1  2  1  0  0  0
  1 45  1  0  0  0
  1 46  1  0  0  0
  1 47  1  0  0  0
  2  3  1  0  0  0
  2 48  1  0  0  0
  2 49  1  0  0  0
  3  8  1  0  0  0
  3  4  1  0  0  0
  4  5  1  0  0  0
  4 50  1  0  0  0
  4 51  1  0  0  0
  5  6  1  0  0  0
  5 52  1  0  0  0
  5 53  1  0  0  0
  6  7  1  0  0  0
  6 11  1  0  0  0
  7  8  1  0  0  0
  7 10  2  0  0  0
  8  9  2  0  0  0
 11 12  1  0  0  0
 11 44  2  0  0  0
 12 13  1  0  0  0
 12 54  1  0  0  0
 13 14  1  0  0  0
 13 21  1  0  0  0
 13 55  1  0  0  0
 14 19  1  0  0  0
 14 15  2  0  0  0
 15 16  1  0  0  0
 15 56  1  0  0  0
 16 17  2  0  0  0
 16 57  1  0  0  0
 17 18  1  0  0  0
 17 20  1  0  0  0
 18 19  2  0  0  0
 18 58  1  0  0  0
 19 59  1  0  0  0
 20 60  1  0  0  0
 21 22  1  0  0  0
 21 43  2  0  0  0
 22 23  1  0  0  0
 22 61  1  0  0  0
 23 26  1  0  0  0
 23 24  1  0  0  0
 23 62  1  0  0  0
 24 34  1  0  0  0
 24 25  1  0  0  0
 24 63  1  0  0  0
 25 26  1  0  0  0
 25 28  1  0  0  0
 26 27  2  0  0  0
 28 29  1  0  0  0
 28 32  2  0  0  0
 29 30  1  0  0  0
 29 31  2  0  0  0
 32 33  1  0  0  0
 32 35  1  0  0  0
 33 34  1  0  0  0
 33 64  1  0  0  0
 33 65  1  0  0  0
 35 36  1  0  0  0
 35 66  1  0  0  0
 35 67  1  0  0  0
 36 37  1  0  0  0
 37 41  1  0  0  0
 37 38  2  0  0  0
 38 39  1  0  0  0
 39 40  2  0  0  0
 40 41  1  0  0  0
 41 42  1  0  0  0
 42 68  1  0  0  0
 42 69  1  0  0  0
 42 70  1  0  0  0
M  CHG  1  30  -1
M  END
> <s_m_entry_id>
27433

> <s_m_entry_name>
data_maestro.8

> <s_m_Source_Path>
C:\Users\olshana1\Git\GramNeg-Accumulation\Gram Negative Permeation - OmpF

> <s_m_Source_File>
data_maestro.csv

> <i_m_Source_File_Index>
8

> <s_m_job_name>
glide-dock_Nicaido_neutral

> <s_i_glide_gridfile>
3POX-grid

> <i_i_glide_lignum>
11

> <i_i_glide_rotatable_bonds>
13

> <r_i_docking_score>
-5.01150446506836

> <r_i_glide_ligand_efficiency>
-0.113897828751554

> <r_i_glide_ligand_efficiency_sa>
-0.402099009623094

> <r_i_glide_ligand_efficiency_ln>
-1.04751375855558

> <r_i_glide_gscore>
-5.01150446506836

> <r_i_glide_lipo>
-0.306046498068984

> <r_i_glide_hbond>
-0.558111114083292

> <r_i_glide_metal>
0

> <r_i_glide_rewards>
-0.103147026495606

> <r_i_glide_evdw>
-43.8287124633789

> <r_i_glide_ecoul>
-10.2909326553345

> <r_i_glide_erotb>
0.362700252817045

> <r_i_glide_esite>
-0.671824557768404

> <r_i_glide_emodel>
-79.6521481538009

> <r_i_glide_energy>
-54.1196451187134

> <r_i_glide_einternal>
10.8203525543213

> <i_i_glide_confnum>
270

> <i_i_glide_posenum>
395

> <r_i_glide_eff_state_penalty>
0

> <r_glide_res:A132_vdw>
-2.72535817678759

> <r_glide_res:A132_coul>
-41.9358210894976

> <r_glide_res:A132_hbond>
-0.0108903398156091

> <r_glide_res:A132_dist>
2.45621882435639

> <r_glide_res:A132_Eint>
-44.6720696061008

> <r_glide_res:A117_vdw>
-1.95733422373116

> <r_glide_res:A117_coul>
24.9916537521952

> <r_glide_res:A117_hbond>
0

> <r_glide_res:A117_dist>
3.58186878797164

> <r_glide_res:A117_Eint>
23.034319528464

> <r_glide_res:A113_vdw>
-2.56640809563265

> <r_glide_res:A113_coul>
19.1903555183286

> <r_glide_res:A113_hbond>
0

> <r_glide_res:A113_dist>
2.27310925114617

> <r_glide_res:A113_Eint>
16.6239474226959

> <r_glide_res:A82_vdw>
-2.19151064837001

> <r_glide_res:A82_coul>
-49.6701581924098

> <r_glide_res:A82_hbond>
-0.2

> <r_glide_res:A82_dist>
1.85380639684957

> <r_glide_res:A82_Eint>
-52.0616688407799

> <r_glide_res:A42_vdw>
-2.8684715272801

> <r_glide_res:A42_coul>
-49.2335474910521

> <r_glide_res:A42_hbond>
-0.311406537053586

> <r_glide_res:A42_dist>
2.03340498280615

> <r_glide_res:A42_Eint>
-52.4134255553858

> <r_glide_res:A16_vdw>
-3.26118700559734

> <r_glide_res:A16_coul>
-24.6369573203403

> <r_glide_res:A16_hbond>
0

> <r_glide_res:A16_dist>
2.42708694613792

> <r_glide_res:A16_Eint>
-27.8981443259376

> <s_m_source_file>
ligprep_Nicaido_neutral.maegz

> <i_m_source_file_index>
8

> <i_lp_mmshare_version>
58128

> <i_f3d_flags>
0

> <s_lp_Force_Field>
S-OPLS

> <r_lp_Energy>
85.319288

> <b_lp_Chiralities_Consistent>
1

> <s_lp_Variant>
Cefoperazone-1

> <s_epik_input>
W0NIM11bQ0gyXU4xW0NIMl1bQ0gyXU4oQyg9TylDMT1PKUMoPU8pW05IXVtDQEhdKGMyW2NIXVtjSF1jKFtPSF0pW2NIXVtjSF0yKUMoPU8pW05IXVtDQEBIXTNDKD1PKU4oW0NASF0zNClDKEMoPU8pW09IXSk9QyhbQ0gyXVM0KVtDSDJdU2M1bm5ubjVbQ0gzXQ==

> <s_epik_cmdline>
J2VwaWtfcHl0aG9uJywgJy1waHQnLCAnMC4wJywgJy1waCcsICc3LjQnLCAnLW50JywgJy1tYScsICc1MDAnLCAnLWltYWUnLCAnPGluZmlsZS5tYWU+JywgJy1vbWFlJywgJzxvdXRmaWxlLm1hZT4n

> <r_lp_tautomer_probability>
1

> <r_epik_Ionization_Penalty>
  0.0158

> <r_epik_Ionization_Penalty_Charging>
  0.0000

> <r_epik_Ionization_Penalty_Neutral>
  0.0158

> <r_epik_State_Penalty>
  0.0000

> <r_epik_Charging_Adjusted_Penalty>
8.23416745038905e-06

> <i_epik_Tot_Q>
-1

> <i_epik_Tot_abs_Q>
1

> <s_epik_Chemistry_Notes>
This compound contains an acetal/aminal-like group ( X-CH(R)-Y where X, Y are N, S, or O) that may be acid/base labile, releasing an aldehyde.

> <s_m_subgroup_title>
glide-dock_Nicaido_neutral_pv1

> <s_m_subgroupid>
glide-dock_Nicaido_neutral_pv1

> <b_m_subgroup_collapsed>
0

$$$$
Cefazolin
                    3D
 Schrodinger Suite 2022-2.
 42 45  0  0  1  0            999 V2000
  -34.9859  -16.2571  -29.2466 C   0  0  0  0  0  0
  -33.6937  -16.8763  -28.8442 C   0  0  0  0  0  0
  -33.1624  -17.9221  -29.4883 N   0  0  0  0  0  0
  -31.9721  -18.3433  -28.9104 N   0  0  0  0  0  0
  -31.6447  -17.6119  -27.8388 C   0  0  0  0  0  0
  -32.7689  -16.3149  -27.4585 S   0  0  0  0  0  0
  -30.2411  -17.9491  -26.8379 S   0  0  0  0  0  0
  -31.1337  -18.7940  -25.5040 C   0  0  0  0  0  0
  -30.2376  -19.2834  -24.3691 C   0  0  0  0  0  0
  -29.4412  -20.3860  -24.4523 C   0  0  0  0  0  0
  -28.6128  -20.7986  -23.3926 N   0  0  0  0  0  0
  -28.2159  -19.9237  -22.3105 C   0  0  2  0  0  0
  -27.4348  -21.1133  -21.7133 C   0  0  2  0  0  0
  -27.8911  -21.9025  -22.9674 C   0  0  0  0  0  0
  -27.7372  -23.0179  -23.4280 O   0  0  0  0  0  0
  -27.9721  -21.6223  -20.4486 N   0  0  0  0  0  0
  -27.6327  -22.8233  -19.9521 C   0  0  0  0  0  0
  -28.0958  -23.1590  -18.5235 C   0  0  0  0  0  0
  -28.0123  -24.5799  -18.1947 N   0  0  0  0  0  0
  -28.9034  -25.3852  -17.6136 C   0  0  0  0  0  0
  -28.4468  -26.6252  -17.4983 N   0  0  0  0  0  0
  -27.1689  -26.5415  -18.0133 N   0  0  0  0  0  0
  -26.8941  -25.3304  -18.4115 N   0  0  0  0  0  0
  -26.9575  -23.6277  -20.6033 O   0  0  0  0  0  0
  -29.7206  -19.1988  -21.6133 S   0  0  0  0  0  0
  -30.3118  -18.3969  -23.1250 C   0  0  0  0  0  0
  -29.2535  -21.2320  -25.7507 C   0  0  0  0  0  0
  -30.2634  -21.5559  -26.4133 O   0  5  0  0  0  0
  -28.0749  -21.5496  -26.0133 O   0  0  0  0  0  0
  -35.1453  -16.3634  -30.3198 H   0  0  0  0  0  0
  -35.8031  -16.7498  -28.7201 H   0  0  0  0  0  0
  -34.9918  -15.1956  -28.9993 H   0  0  0  0  0  0
  -31.7075  -19.6205  -25.9188 H   0  0  0  0  0  0
  -31.8804  -18.1056  -25.1091 H   0  0  0  0  0  0
  -27.5470  -19.1496  -22.6860 H   0  0  0  0  0  0
  -26.3642  -20.9105  -21.6751 H   0  0  0  0  0  0
  -28.5809  -21.0086  -19.9181 H   0  0  0  0  0  0
  -29.1323  -22.8374  -18.3942 H   0  0  0  0  0  0
  -27.4915  -22.6038  -17.8053 H   0  0  0  0  0  0
  -29.8884  -25.0719  -17.3010 H   0  0  0  0  0  0
  -29.7268  -17.4948  -23.3045 H   0  0  0  0  0  0
  -31.3387  -18.0807  -22.9388 H   0  0  0  0  0  0
  1  2  1  0  0  0
  1 30  1  0  0  0
  1 31  1  0  0  0
  1 32  1  0  0  0
  2  6  1  0  0  0
  2  3  2  0  0  0
  3  4  1  0  0  0
  4  5  2  0  0  0
  5  6  1  0  0  0
  5  7  1  0  0  0
  7  8  1  0  0  0
  8  9  1  0  0  0
  8 33  1  0  0  0
  8 34  1  0  0  0
  9 26  1  0  0  0
  9 10  2  0  0  0
 10 11  1  0  0  0
 10 27  1  0  0  0
 11 14  1  0  0  0
 11 12  1  0  0  0
 12 13  1  0  0  0
 12 25  1  0  0  0
 12 35  1  0  0  0
 13 14  1  0  0  0
 13 16  1  0  0  0
 13 36  1  0  0  0
 14 15  2  0  0  0
 16 17  1  0  0  0
 16 37  1  0  0  0
 17 18  1  0  0  0
 17 24  2  0  0  0
 18 19  1  0  0  0
 18 38  1  0  0  0
 18 39  1  0  0  0
 19 23  1  0  0  0
 19 20  1  0  0  0
 20 21  2  0  0  0
 20 40  1  0  0  0
 21 22  1  0  0  0
 22 23  2  0  0  0
 25 26  1  0  0  0
 26 41  1  0  0  0
 26 42  1  0  0  0
 27 28  1  0  0  0
 27 29  2  0  0  0
M  CHG  1  28  -1
M  END
> <s_m_entry_id>
27434

> <s_m_entry_name>
data_maestro.2

> <s_m_Source_Path>
C:\Users\olshana1\Git\GramNeg-Accumulation\Gram Negative Permeation - OmpF

> <s_m_Source_File>
data_maestro.csv

> <i_m_Source_File_Index>
2

> <s_m_job_name>
glide-dock_Nicaido_neutral

> <s_i_glide_gridfile>
3POX-grid

> <i_i_glide_lignum>
2

> <i_i_glide_rotatable_bonds>
8

> <r_i_docking_score>
-5.01146530324525

> <r_i_glide_ligand_efficiency>
-0.172809148387767

> <r_i_glide_ligand_efficiency_sa>
-0.530924453628253

> <r_i_glide_ligand_efficiency_ln>
-1.14749847464782

> <r_i_glide_gscore>
-5.01146530324525

> <r_i_glide_lipo>
-0.189619868796793

> <r_i_glide_hbond>
-0.52007561816382

> <r_i_glide_metal>
0

> <r_i_glide_rewards>
-0.315345442901743

> <r_i_glide_evdw>
-39.4000244140625

> <r_i_glide_ecoul>
-11.8435869216919

> <r_i_glide_erotb>
0.585623573400065

> <r_i_glide_esite>
-0.82550868782605

> <r_i_glide_emodel>
-75.7884580541603

> <r_i_glide_energy>
-51.2436113357544

> <r_i_glide_einternal>
6.71696090698242

> <i_i_glide_confnum>
27

> <i_i_glide_posenum>
172

> <r_i_glide_eff_state_penalty>
0

> <r_glide_res:A132_vdw>
-1.9899889258435

> <r_glide_res:A132_coul>
-32.8932183491575

> <r_glide_res:A132_hbond>
-0.0877949423127691

> <r_glide_res:A132_dist>
2.34373740973486

> <r_glide_res:A132_Eint>
-34.9710022173138

> <r_glide_res:A117_vdw>
-4.49907706998347

> <r_glide_res:A117_coul>
25.5930190027441

> <r_glide_res:A117_hbond>
0

> <r_glide_res:A117_dist>
2.41929232489005

> <r_glide_res:A117_Eint>
21.0939419327606

> <r_glide_res:A113_vdw>
-2.74508632981443

> <r_glide_res:A113_coul>
9.77857897010447

> <r_glide_res:A113_hbond>
0

> <r_glide_res:A113_dist>
2.28786200870638

> <r_glide_res:A113_Eint>
7.03349264029004

> <r_glide_res:A82_vdw>
-1.52641822201599

> <r_glide_res:A82_coul>
-37.4488690294933

> <r_glide_res:A82_hbond>
-0.0618862053243313

> <r_glide_res:A82_dist>
2.31944151811416

> <r_glide_res:A82_Eint>
-39.0371734568336

> <r_glide_res:A42_vdw>
-0.357629695640688

> <r_glide_res:A42_coul>
-52.6805263516605

> <r_glide_res:A42_hbond>
-0.17039447052672

> <r_glide_res:A42_dist>
1.91196968140539

> <r_glide_res:A42_Eint>
-53.2085505178279

> <r_glide_res:A16_vdw>
1.05049769692779

> <r_glide_res:A16_coul>
-57.7927207590796

> <r_glide_res:A16_hbond>
-0.2

> <r_glide_res:A16_dist>
1.75161577670627

> <r_glide_res:A16_Eint>
-56.9422230621519

> <s_m_source_file>
ligprep_Nicaido_neutral.maegz

> <i_m_source_file_index>
2

> <i_lp_mmshare_version>
58128

> <i_f3d_flags>
0

> <s_lp_Force_Field>
S-OPLS

> <r_lp_Energy>
37.420105

> <b_lp_Chiralities_Consistent>
1

> <s_lp_Variant>
Cefazolin-1

> <s_epik_input>
W0NIM11jMW5uYyhzMSlTW0NIMl1DKD1DMkMoPU8pW09IXSlbQ0gyXVNbQ0BIXShOMjMpW0NASF0oQzM9TylbTkhdQyg9TylbQ0gyXW40W2NIXW5ubjQ=

> <s_epik_cmdline>
J2VwaWtfcHl0aG9uJywgJy1waHQnLCAnMC4wJywgJy1waCcsICc3LjQnLCAnLW50JywgJy1tYScsICc1MDAnLCAnLWltYWUnLCAnPGluZmlsZS5tYWU+JywgJy1vbWFlJywgJzxvdXRmaWxlLm1hZT4n

> <r_lp_tautomer_probability>
1

> <r_epik_Ionization_Penalty>
  0.0000

> <r_epik_Ionization_Penalty_Charging>
  0.0000

> <r_epik_Ionization_Penalty_Neutral>
  0.0000

> <r_epik_State_Penalty>
  0.0000

> <r_epik_Charging_Adjusted_Penalty>
8.33047029083912e-06

> <i_epik_Tot_Q>
-1

> <i_epik_Tot_abs_Q>
1

> <s_epik_Chemistry_Notes>
This compound contains an acetal/aminal-like group ( X-CH(R)-Y where X, Y are N, S, or O) that may be acid/base labile, releasing an aldehyde.

> <s_m_subgroup_title>
glide-dock_Nicaido_neutral_pv1

> <s_m_subgroupid>
glide-dock_Nicaido_neutral_pv1

> <b_m_subgroup_collapsed>
0

$$$$
Cefacetrile
                    3D
 Schrodinger Suite 2022-2.
 35 36  0  0  1  0            999 V2000
  -30.2533  -17.4123  -27.2132 C   0  0  0  0  0  0
  -31.2739  -18.0581  -26.2870 C   0  0  0  0  0  0
  -31.3183  -19.3896  -26.4367 O   0  0  0  0  0  0
  -32.1341  -20.1815  -25.5862 C   0  0  0  0  0  0
  -31.3980  -20.5681  -24.3090 C   0  0  0  0  0  0
  -30.2387  -21.2860  -24.2792 C   0  0  0  0  0  0
  -29.5361  -21.5360  -23.0859 N   0  0  0  0  0  0
  -29.8539  -20.8719  -21.8392 C   0  0  2  0  0  0
  -28.7358  -21.7221  -21.1940 C   0  0  2  0  0  0
  -28.7506  -22.5255  -22.5157 C   0  0  0  0  0  0
  -28.3693  -23.6085  -22.9138 O   0  0  0  0  0  0
  -29.1689  -22.4618  -20.0132 N   0  0  0  0  0  0
  -28.4878  -23.4606  -19.4318 C   0  0  0  0  0  0
  -29.0329  -23.9909  -18.1025 C   0  0  0  0  0  0
  -28.6578  -25.3884  -17.8257 C   0  0  0  0  0  0
  -28.3687  -26.4915  -17.6130 N   0  0  0  0  0  0
  -27.4707  -23.9498  -19.9274 O   0  0  0  0  0  0
  -31.6476  -21.0685  -21.6131 S   0  0  0  0  0  0
  -32.1103  -20.0865  -23.0526 C   0  0  0  0  0  0
  -29.5886  -21.8909  -25.5580 C   0  0  0  0  0  0
  -28.3412  -21.9495  -25.6132 O   0  5  0  0  0  0
  -30.3691  -22.3495  -26.4153 O   0  0  0  0  0  0
  -31.9655  -17.3963  -25.5139 O   0  0  0  0  0  0
  -29.3396  -17.1880  -26.6625 H   0  0  0  0  0  0
  -30.0038  -18.0662  -28.0474 H   0  0  0  0  0  0
  -30.6443  -16.4758  -27.6105 H   0  0  0  0  0  0
  -32.4392  -21.0836  -26.1148 H   0  0  0  0  0  0
  -33.0602  -19.6557  -25.3490 H   0  0  0  0  0  0
  -29.5904  -19.8130  -21.8776 H   0  0  0  0  0  0
  -27.8276  -21.1404  -21.0281 H   0  0  0  0  0  0
  -29.9919  -22.1063  -19.5193 H   0  0  0  0  0  0
  -30.1206  -23.9496  -18.0995 H   0  0  0  0  0  0
  -28.6730  -23.3662  -17.2849 H   0  0  0  0  0  0
  -31.8768  -19.0347  -22.8819 H   0  0  0  0  0  0
  -33.1907  -20.1683  -23.1724 H   0  0  0  0  0  0
  1  2  1  0  0  0
  1 24  1  0  0  0
  1 25  1  0  0  0
  1 26  1  0  0  0
  2  3  1  0  0  0
  2 23  2  0  0  0
  3  4  1  0  0  0
  4  5  1  0  0  0
  4 27  1  0  0  0
  4 28  1  0  0  0
  5 19  1  0  0  0
  5  6  2  0  0  0
  6  7  1  0  0  0
  6 20  1  0  0  0
  7 10  1  0  0  0
  7  8  1  0  0  0
  8  9  1  0  0  0
  8 18  1  0  0  0
  8 29  1  0  0  0
  9 10  1  0  0  0
  9 12  1  0  0  0
  9 30  1  0  0  0
 10 11  2  0  0  0
 12 13  1  0  0  0
 12 31  1  0  0  0
 13 14  1  0  0  0
 13 17  2  0  0  0
 14 15  1  0  0  0
 14 32  1  0  0  0
 14 33  1  0  0  0
 15 16  3  0  0  0
 18 19  1  0  0  0
 19 34  1  0  0  0
 19 35  1  0  0  0
 20 21  1  0  0  0
 20 22  2  0  0  0
M  CHG  1  21  -1
M  END
> <s_m_entry_id>
27435

> <s_m_entry_name>
data_maestro.1

> <s_m_Source_Path>
C:\Users\olshana1\Git\GramNeg-Accumulation\Gram Negative Permeation - OmpF

> <s_m_Source_File>
data_maestro.csv

> <i_m_Source_File_Index>
1

> <s_m_job_name>
glide-dock_Nicaido_neutral

> <s_i_glide_gridfile>
3POX-grid

> <i_i_glide_lignum>
1

> <i_i_glide_rotatable_bonds>
7

> <r_i_docking_score>
-5.01118568189754

> <r_i_glide_ligand_efficiency>
-0.217877638343371

> <r_i_glide_ligand_efficiency_sa>
-0.619615020685155

> <r_i_glide_ligand_efficiency_ln>
-1.21175013680237

> <r_i_glide_gscore>
-5.01118568189754

> <r_i_glide_lipo>
0

> <r_i_glide_hbond>
-1.08645991239938

> <r_i_glide_metal>
0

> <r_i_glide_rewards>
-1.10051967435438

> <r_i_glide_evdw>
-22.8064289093018

> <r_i_glide_ecoul>
-11.747522354126

> <r_i_glide_erotb>
0.660867222788296

> <r_i_glide_esite>
-0.582623519348096

> <r_i_glide_emodel>
-58.5747929201534

> <r_i_glide_energy>
-34.5539512634277

> <r_i_glide_einternal>
2.72846579551697

> <i_i_glide_confnum>
17

> <i_i_glide_posenum>
28

> <r_i_glide_eff_state_penalty>
0

> <r_glide_res:A132_vdw>
-1.95832649173458

> <r_glide_res:A132_coul>
-32.6429635003424

> <r_glide_res:A132_hbond>
-0.16

> <r_glide_res:A132_dist>
1.98998931421854

> <r_glide_res:A132_Eint>
-34.7612899920769

> <r_glide_res:A117_vdw>
-2.00262315549966

> <r_glide_res:A117_coul>
22.9522623314547

> <r_glide_res:A117_hbond>
0

> <r_glide_res:A117_dist>
2.66869612701591

> <r_glide_res:A117_Eint>
20.9496391759551

> <r_glide_res:A113_vdw>
-2.26891422293402

> <r_glide_res:A113_coul>
5.52952805319874

> <r_glide_res:A113_hbond>
-0.16

> <r_glide_res:A113_dist>
1.86273499841742

> <r_glide_res:A113_Eint>
3.10061383026472

> <r_glide_res:A82_vdw>
-1.63513346303211

> <r_glide_res:A82_coul>
-39.4838309320874

> <r_glide_res:A82_hbond>
-0.151876905825234

> <r_glide_res:A82_dist>
2.15820080978135

> <r_glide_res:A82_Eint>
-41.2708413009447

> <r_glide_res:A42_vdw>
2.41331086440717

> <r_glide_res:A42_coul>
-53.8242529563639

> <r_glide_res:A42_hbond>
-0.454660789419065

> <r_glide_res:A42_dist>
1.90920669452532

> <r_glide_res:A42_Eint>
-51.8656028813758

> <r_glide_res:A16_vdw>
-1.3256075174808

> <r_glide_res:A16_coul>
-44.1710647140728

> <r_glide_res:A16_hbond>
-0.159922217155077

> <r_glide_res:A16_dist>
2.07920630273685

> <r_glide_res:A16_Eint>
-45.6565944487087

> <s_m_source_file>
ligprep_Nicaido_neutral.maegz

> <i_m_source_file_index>
1

> <i_lp_mmshare_version>
58128

> <i_f3d_flags>
0

> <s_lp_Force_Field>
S-OPLS

> <r_lp_Energy>
24.277434

> <b_lp_Chiralities_Consistent>
1

> <s_lp_Variant>
Cefacetrile-1

> <s_epik_input>
W0NIM11DKD1PKU9bQ0gyXUMoPUMxQyg9TylbT0hdKVtDSDJdU1tDQEhdKE4xMilbQ0BIXShDMj1PKVtOSF1DKD1PKVtDSDJdQyNO

> <s_epik_cmdline>
J2VwaWtfcHl0aG9uJywgJy1waHQnLCAnMC4wJywgJy1waCcsICc3LjQnLCAnLW50JywgJy1tYScsICc1MDAnLCAnLWltYWUnLCAnPGluZmlsZS5tYWU+JywgJy1vbWFlJywgJzxvdXRmaWxlLm1hZT4n

> <r_lp_tautomer_probability>
1

> <r_epik_Ionization_Penalty>
  0.0000

> <r_epik_Ionization_Penalty_Charging>
  0.0000

> <r_epik_Ionization_Penalty_Neutral>
  0.0000

> <r_epik_State_Penalty>
  0.0000

> <r_epik_Charging_Adjusted_Penalty>
5.96156609429709e-06

> <i_epik_Tot_Q>
-1

> <i_epik_Tot_abs_Q>
1

> <s_epik_Chemistry_Notes>
This compound has an ester and may undergo hydrolysis at high or low pH. This compound contains an acetal/aminal-like group ( X-CH(R)-Y where X, Y are N, S, or O) that may be acid/base labile, releasing an aldehyde.

> <s_m_subgroup_title>
glide-dock_Nicaido_neutral_pv1

> <s_m_subgroupid>
glide-dock_Nicaido_neutral_pv1

> <b_m_subgroup_collapsed>
0

$$$$
Cephalosporin C
                    3D
 Schrodinger Suite 2022-2.
 45 46  0  0  1  0            999 V2000
  -20.1497  -23.9469  -24.9299 O   0  0  0  0  0  0
  -20.0324  -22.7978  -25.3644 C   0  0  0  0  0  0
  -20.9778  -22.0974  -26.0141 O   0  0  0  0  0  0
  -22.2748  -22.6423  -26.2204 C   0  0  0  0  0  0
  -23.2117  -22.2069  -25.1027 C   0  0  0  0  0  0
  -23.7981  -23.0695  -24.2292 C   0  0  0  0  0  0
  -24.5162  -22.6092  -23.1146 N   0  0  0  0  0  0
  -24.3153  -21.2798  -22.5813 C   0  0  2  0  0  0
  -25.2877  -21.6438  -21.4468 C   0  0  2  0  0  0
  -25.5137  -22.9727  -22.2270 C   0  0  0  0  0  0
  -26.2340  -23.9490  -22.1635 O   0  0  0  0  0  0
  -26.4051  -20.7047  -21.4079 N   0  0  0  0  0  0
  -27.5739  -20.9064  -20.7878 C   0  0  0  0  0  0
  -28.6289  -19.8113  -20.9777 C   0  0  0  0  0  0
  -29.9318  -20.3203  -21.6371 C   0  0  0  0  0  0
  -29.7725  -21.1850  -22.9140 C   0  0  0  0  0  0
  -29.4402  -20.4405  -24.2364 C   0  0  2  0  0  0
  -29.2340  -21.4559  -25.3752 C   0  0  0  0  0  0
  -28.3693  -22.3477  -25.2114 O   0  5  0  0  0  0
  -29.9267  -21.3389  -26.4111 O   0  0  0  0  0  0
  -28.2146  -19.6208  -24.1470 N   0  3  0  0  0  0
  -27.8229  -21.9255  -20.1462 O   0  0  0  0  0  0
  -24.6919  -20.1162  -23.9234 S   0  0  0  0  0  0
  -23.3754  -20.6842  -25.0365 C   0  0  0  0  0  0
  -23.6437  -24.6174  -24.3546 C   0  0  0  0  0  0
  -22.7886  -25.1490  -23.6124 O   0  5  0  0  0  0
  -24.3684  -25.1951  -25.1982 O   0  0  0  0  0  0
  -19.1260  -22.1947  -25.2874 H   0  0  0  0  0  0
  -22.2307  -23.7239  -26.3371 H   0  0  0  0  0  0
  -22.6610  -22.2536  -27.1617 H   0  0  0  0  0  0
  -23.2926  -21.1449  -22.2250 H   0  0  0  0  0  0
  -24.7839  -21.7568  -20.4844 H   0  0  0  0  0  0
  -26.2545  -19.8215  -21.8719 H   0  0  0  0  0  0
  -28.2146  -18.9806  -21.5512 H   0  0  0  0  0  0
  -28.8570  -19.3924  -19.9968 H   0  0  0  0  0  0
  -30.5884  -19.4737  -21.8392 H   0  0  0  0  0  0
  -30.4598  -20.9172  -20.8893 H   0  0  0  0  0  0
  -30.7270  -21.6910  -23.0669 H   0  0  0  0  0  0
  -29.0673  -21.9962  -22.7267 H   0  0  0  0  0  0
  -30.2637  -19.7683  -24.4814 H   0  0  0  0  0  0
  -28.0698  -19.1419  -25.0243 H   0  0  0  0  0  0
  -28.2976  -18.9390  -23.4058 H   0  0  0  0  0  0
  -22.4325  -20.2472  -24.7046 H   0  0  0  0  0  0
  -23.5815  -20.2922  -26.0342 H   0  0  0  0  0  0
  -27.4272  -20.2292  -23.9749 H   0  0  0  0  0  0
  1  2  2  0  0  0
  2  3  1  0  0  0
  2 28  1  0  0  0
  3  4  1  0  0  0
  4  5  1  0  0  0
  4 29  1  0  0  0
  4 30  1  0  0  0
  5 24  1  0  0  0
  5  6  2  0  0  0
  6  7  1  0  0  0
  6 25  1  0  0  0
  7 10  1  0  0  0
  7  8  1  0  0  0
  8  9  1  0  0  0
  8 23  1  0  0  0
  8 31  1  0  0  0
  9 10  1  0  0  0
  9 12  1  0  0  0
  9 32  1  0  0  0
 10 11  2  0  0  0
 12 13  1  0  0  0
 12 33  1  0  0  0
 13 14  1  0  0  0
 13 22  2  0  0  0
 14 15  1  0  0  0
 14 34  1  0  0  0
 14 35  1  0  0  0
 15 16  1  0  0  0
 15 36  1  0  0  0
 15 37  1  0  0  0
 16 17  1  0  0  0
 16 38  1  0  0  0
 16 39  1  0  0  0
 17 18  1  0  0  0
 17 21  1  0  0  0
 17 40  1  0  0  0
 18 19  1  0  0  0
 18 20  2  0  0  0
 21 41  1  0  0  0
 21 42  1  0  0  0
 21 45  1  0  0  0
 23 24  1  0  0  0
 24 43  1  0  0  0
 24 44  1  0  0  0
 25 26  1  0  0  0
 25 27  2  0  0  0
M  CHG  3  19  -1  21   1  26  -1
M  END
> <s_m_entry_id>
27436

> <s_m_entry_name>
data_maestro.25

> <s_m_Source_Path>
C:\Users\olshana1\Git\GramNeg-Accumulation\Gram Negative Permeation - OmpF

> <s_m_Source_File>
data_maestro.csv

> <i_m_Source_File_Index>
25

> <s_m_job_name>
glide-dock_Nicaido_neutral

> <s_i_glide_gridfile>
3POX-grid

> <i_i_glide_lignum>
32

> <i_i_glide_rotatable_bonds>
11

> <r_i_docking_score>
-5.00872702825682

> <r_i_glide_ligand_efficiency>
-0.185508408453956

> <r_i_glide_ligand_efficiency_sa>
-0.556525224750463

> <r_i_glide_ligand_efficiency_ln>
-1.16594907685951

> <r_i_glide_gscore>
-5.00872702825682

> <r_i_glide_lipo>
0

> <r_i_glide_hbond>
-1.08281292669851

> <r_i_glide_metal>
0

> <r_i_glide_rewards>
-0.679180493301567

> <r_i_glide_evdw>
-19.7037448883057

> <r_i_glide_ecoul>
-18.3112392425537

> <r_i_glide_erotb>
0.97830559423054

> <r_i_glide_esite>
-0.493166071688946

> <r_i_glide_emodel>
-66.4124683920389

> <r_i_glide_energy>
-38.0149841308594

> <r_i_glide_einternal>
8.62381744384766

> <i_i_glide_confnum>
142

> <i_i_glide_posenum>
67

> <r_i_glide_eff_state_penalty>
0

> <r_glide_res:A132_vdw>
-1.25510089718325

> <r_glide_res:A132_coul>
-39.2822424057745

> <r_glide_res:A132_hbond>
-0.0802906868557507

> <r_glide_res:A132_dist>
2.19015071922772

> <r_glide_res:A132_Eint>
-40.6176339898135

> <r_glide_res:A117_vdw>
-3.37897916500015

> <r_glide_res:A117_coul>
2.28734156562873

> <r_glide_res:A117_hbond>
0

> <r_glide_res:A117_dist>
2.56348030761812

> <r_glide_res:A117_Eint>
-1.09163759937142

> <r_glide_res:A113_vdw>
-2.01290572408545

> <r_glide_res:A113_coul>
15.0359054630686

> <r_glide_res:A113_hbond>
0

> <r_glide_res:A113_dist>
2.48037018375575

> <r_glide_res:A113_Eint>
13.0229997389832

> <r_glide_res:A82_vdw>
-2.3008566174851

> <r_glide_res:A82_coul>
-53.0195836574738

> <r_glide_res:A82_hbond>
-0.253208739546461

> <r_glide_res:A82_dist>
2.1442946422222

> <r_glide_res:A82_Eint>
-55.5736490145054

> <r_glide_res:A42_vdw>
0.56132172496521

> <r_glide_res:A42_coul>
-57.2761430878096

> <r_glide_res:A42_hbond>
-0.349313500296293

> <r_glide_res:A42_dist>
1.90783671904761

> <r_glide_res:A42_Eint>
-57.0641348631407

> <r_glide_res:A16_vdw>
2.28490936573644

> <r_glide_res:A16_coul>
-40.1901628311029

> <r_glide_res:A16_hbond>
-0.2

> <r_glide_res:A16_dist>
1.75621788597841

> <r_glide_res:A16_Eint>
-38.1052534653664

> <s_m_source_file>
ligprep_Nicaido_neutral.maegz

> <i_m_source_file_index>
25

> <i_lp_mmshare_version>
58128

> <i_f3d_flags>
0

> <s_lp_Force_Field>
S-OPLS

> <r_lp_Energy>
27.061927

> <b_lp_Chiralities_Consistent>
1

> <s_lp_Variant>
Cephalosporin C-1

> <s_epik_input>
Tz1bQ0hdT1tDSDJdQyg9QzFDKD1PKVtPSF0pW0NIMl1TW0NASF0oTjEyKVtDQEhdKEMyPU8pW05IXUMoPU8pW0NIMl1bQ0gyXVtDSDJdW0NAQEhdKFtOSDJdKUMoPU8pW09IXQ==

> <s_epik_cmdline>
J2VwaWtfcHl0aG9uJywgJy1waHQnLCAnMC4wJywgJy1waCcsICc3LjQnLCAnLW50JywgJy1tYScsICc1MDAnLCAnLWltYWUnLCAnPGluZmlsZS5tYWU+JywgJy1vbWFlJywgJzxvdXRmaWxlLm1hZT4n

> <r_lp_tautomer_probability>
1

> <r_epik_Ionization_Penalty>
  0.0034

> <r_epik_Ionization_Penalty_Charging>
  0.0034

> <r_epik_Ionization_Penalty_Neutral>
  0.0000

> <r_epik_State_Penalty>
  0.0000

> <r_epik_Charging_Adjusted_Penalty>
0.00339038450865705

> <i_epik_Tot_Q>
-1

> <i_epik_Tot_abs_Q>
3

> <s_epik_Chemistry_Notes>
This compound has an ester and may undergo hydrolysis at high or low pH. This compound contains an acetal/aminal-like group ( X-CH(R)-Y where X, Y are N, S, or O) that may be acid/base labile, releasing an aldehyde.

> <s_m_subgroup_title>
glide-dock_Nicaido_neutral_pv1

> <s_m_subgroupid>
glide-dock_Nicaido_neutral_pv1

> <b_m_subgroup_collapsed>
0

$$$$
SCE-796
                    3D
 Schrodinger Suite 2022-2.
 54 57  0  0  1  0            999 V2000
  -26.6673  -23.1494  -23.5109 O   0  0  0  0  0  0
  -26.9208  -22.0339  -23.1029 C   0  0  0  0  0  0
  -27.3733  -20.6777  -23.7042 C   0  0  2  0  0  0
  -27.2526  -20.1259  -22.2802 C   0  0  2  0  0  0
  -26.9461  -21.4737  -21.8365 N   0  0  0  0  0  0
  -26.7445  -21.7867  -20.4799 C   0  0  0  0  0  0
  -26.1006  -23.1800  -20.1699 C   0  0  0  0  0  0
  -24.9754  -23.1607  -19.6280 O   0  5  0  0  0  0
  -26.7697  -24.1980  -20.4608 O   0  0  0  0  0  0
  -27.1537  -20.9543  -19.4851 C   0  0  0  0  0  0
  -27.9311  -19.6550  -19.7247 C   0  0  0  0  0  0
  -28.6971  -19.5495  -21.3479 S   0  0  0  0  0  0
  -26.9484  -21.2613  -18.0058 C   0  0  0  0  0  0
  -25.5681  -20.9686  -17.5400 N   0  3  0  0  0  0
  -25.0190  -19.7459  -17.7578 C   0  0  0  0  0  0
  -23.7656  -19.4020  -17.2136 C   0  0  0  0  0  0
  -23.0806  -20.3431  -16.4134 C   0  0  0  0  0  0
  -23.6492  -21.6234  -16.2418 C   0  0  0  0  0  0
  -24.9057  -21.9084  -16.8150 C   0  0  0  0  0  0
  -21.7903  -19.9951  -15.7328 C   0  0  0  0  0  0
  -21.6894  -18.7501  -15.2618 N   0  0  0  0  0  0
  -20.9122  -20.8380  -15.5645 O   0  0  0  0  0  0
  -28.7667  -20.6536  -24.1099 N   0  0  0  0  0  0
  -29.2692  -21.1093  -25.2575 C   0  0  0  0  0  0
  -30.8030  -21.0386  -25.4313 C   0  0  2  0  0  0
  -31.5346  -20.6241  -24.1457 C   0  0  0  0  0  0
  -31.9776  -19.2887  -24.0127 C   0  0  0  0  0  0
  -32.5674  -18.8453  -22.8136 C   0  0  0  0  0  0
  -32.7249  -19.7369  -21.7382 C   0  0  0  0  0  0
  -32.2933  -21.0704  -21.8587 C   0  0  0  0  0  0
  -31.7005  -21.5142  -23.0565 C   0  0  0  0  0  0
  -31.3124  -22.4012  -25.9573 C   0  0  0  0  0  0
  -32.2196  -22.3490  -26.8149 O   0  5  0  0  0  0
  -30.7691  -23.4637  -25.5725 O   0  0  0  0  0  0
  -28.5442  -21.5495  -26.1477 O   0  0  0  0  0  0
  -26.6842  -20.2062  -24.4055 H   0  0  0  0  0  0
  -26.3999  -19.4560  -22.1526 H   0  0  0  0  0  0
  -28.7351  -19.5504  -18.9966 H   0  0  0  0  0  0
  -27.2780  -18.7921  -19.6135 H   0  0  0  0  0  0
  -27.6206  -20.6627  -17.3950 H   0  0  0  0  0  0
  -27.1882  -22.3031  -17.7908 H   0  0  0  0  0  0
  -25.5991  -19.0409  -18.3255 H   0  0  0  0  0  0
  -23.3626  -18.4130  -17.3854 H   0  0  0  0  0  0
  -23.1520  -22.3640  -15.6332 H   0  0  0  0  0  0
  -25.4059  -22.8562  -16.6758 H   0  0  0  0  0  0
  -22.4561  -18.0928  -15.3388 H   0  0  0  0  0  0
  -20.8472  -18.4771  -14.7776 H   0  0  0  0  0  0
  -29.4190  -20.2996  -23.4210 H   0  0  0  0  0  0
  -30.9996  -20.2882  -26.1969 H   0  0  0  0  0  0
  -31.8443  -18.5852  -24.8215 H   0  0  0  0  0  0
  -32.8828  -17.8166  -22.7123 H   0  0  0  0  0  0
  -33.1635  -19.3946  -20.8135 H   0  0  0  0  0  0
  -32.3978  -21.7447  -21.0208 H   0  0  0  0  0  0
  -31.3513  -22.5343  -23.1199 H   0  0  0  0  0  0
  1  2  2  0  0  0
  2  5  1  0  0  0
  2  3  1  0  0  0
  3  4  1  0  0  0
  3 23  1  0  0  0
  3 36  1  0  0  0
  4 12  1  0  0  0
  4  5  1  0  0  0
  4 37  1  0  0  0
  5  6  1  0  0  0
  6  7  1  0  0  0
  6 10  2  0  0  0
  7  8  1  0  0  0
  7  9  2  0  0  0
 10 11  1  0  0  0
 10 13  1  0  0  0
 11 12  1  0  0  0
 11 38  1  0  0  0
 11 39  1  0  0  0
 13 14  1  0  0  0
 13 40  1  0  0  0
 13 41  1  0  0  0
 14 19  1  0  0  0
 14 15  2  0  0  0
 15 16  1  0  0  0
 15 42  1  0  0  0
 16 17  2  0  0  0
 16 43  1  0  0  0
 17 18  1  0  0  0
 17 20  1  0  0  0
 18 19  2  0  0  0
 18 44  1  0  0  0
 19 45  1  0  0  0
 20 21  1  0  0  0
 20 22  2  0  0  0
 21 46  1  0  0  0
 21 47  1  0  0  0
 23 24  1  0  0  0
 23 48  1  0  0  0
 24 25  1  0  0  0
 24 35  2  0  0  0
 25 26  1  0  0  0
 25 32  1  0  0  0
 25 49  1  0  0  0
 26 31  1  0  0  0
 26 27  2  0  0  0
 27 28  1  0  0  0
 27 50  1  0  0  0
 28 29  2  0  0  0
 28 51  1  0  0  0
 29 30  1  0  0  0
 29 52  1  0  0  0
 30 31  2  0  0  0
 30 53  1  0  0  0
 31 54  1  0  0  0
 32 33  1  0  0  0
 32 34  2  0  0  0
M  CHG  3   8  -1  14   1  33  -1
M  END
> <s_m_entry_id>
27437

> <s_m_entry_name>
data_maestro.28

> <s_m_Source_Path>
C:\Users\olshana1\Git\GramNeg-Accumulation\Gram Negative Permeation - OmpF

> <s_m_Source_File>
data_maestro.csv

> <i_m_Source_File_Index>
28

> <s_m_job_name>
glide-dock_Nicaido_neutral

> <s_i_glide_gridfile>
3POX-grid

> <i_i_glide_lignum>
35

> <i_i_glide_rotatable_bonds>
9

> <r_i_docking_score>
-5.00744616973562

> <r_i_glide_ligand_efficiency>
-0.143069890563875

> <r_i_glide_ligand_efficiency_sa>
-0.467991098471236

> <r_i_glide_ligand_efficiency_ln>
-1.09924556853695

> <r_i_glide_gscore>
-5.00744616973562

> <r_i_glide_lipo>
-0.013110677743348

> <r_i_glide_hbond>
-0.72981280063982

> <r_i_glide_metal>
0

> <r_i_glide_rewards>
-0.255653387512858

> <r_i_glide_evdw>
-32.5320472717285

> <r_i_glide_ecoul>
-14.9873247146606

> <r_i_glide_erotb>
0.415177540389138

> <r_i_glide_esite>
-0.549345773443211

> <r_i_glide_emodel>
-78.62699897214

> <r_i_glide_energy>
-47.5193719863892

> <r_i_glide_einternal>
5.55405902862549

> <i_i_glide_confnum>
39

> <i_i_glide_posenum>
277

> <r_i_glide_eff_state_penalty>
0

> <r_glide_res:A132_vdw>
1.02602076028228

> <r_glide_res:A132_coul>
-49.3300487492245

> <r_glide_res:A132_hbond>
-0.347194880413591

> <r_glide_res:A132_dist>
1.78719466225896

> <r_glide_res:A132_Eint>
-48.6512228693558

> <r_glide_res:A117_vdw>
-2.89718984937362

> <r_glide_res:A117_coul>
17.2585287610554

> <r_glide_res:A117_hbond>
0

> <r_glide_res:A117_dist>
2.87004695969636

> <r_glide_res:A117_Eint>
14.3613389116818

> <r_glide_res:A113_vdw>
-3.74103414244723

> <r_glide_res:A113_coul>
16.4707230580265

> <r_glide_res:A113_hbond>
0

> <r_glide_res:A113_dist>
2.20304559695194

> <r_glide_res:A113_Eint>
12.7296889155793

> <r_glide_res:A82_vdw>
-1.66413989054118

> <r_glide_res:A82_coul>
-50.017363011947

> <r_glide_res:A82_hbond>
-0.0948016684292297

> <r_glide_res:A82_dist>
2.18003557842211

> <r_glide_res:A82_Eint>
-51.7763045709174

> <r_glide_res:A42_vdw>
-1.14286900518354

> <r_glide_res:A42_coul>
-56.0189092479628

> <r_glide_res:A42_hbond>
-0.266341243678039

> <r_glide_res:A42_dist>
2.02726282085238

> <r_glide_res:A42_Eint>
-57.4281194968244

> <r_glide_res:A16_vdw>
-1.26951417845899

> <r_glide_res:A16_coul>
-51.2770006124838

> <r_glide_res:A16_hbond>
-0.00780297379294946

> <r_glide_res:A16_dist>
2.22657080908382

> <r_glide_res:A16_Eint>
-52.5543177647358

> <s_m_source_file>
ligprep_Nicaido_neutral.maegz

> <i_m_source_file_index>
28

> <i_lp_mmshare_version>
58128

> <i_f3d_flags>
0

> <s_lp_Force_Field>
S-OPLS

> <r_lp_Energy>
64.89814

> <b_lp_Chiralities_Consistent>
1

> <s_lp_Variant>
SCE-796-1

> <s_epik_input>
W2NIXTFbY0hdW2NIXVtjSF1bY0hdYzFbQ0BIXShDKD1PKVtPSF0pQyg9TylbTkhdW0NAQEhdMkMoPU8pTihbQ0BASF0yMylDKEMoPU8pW09IXSk9QyhbQ0gyXVMzKVtDSDJdW24rXTRbY0hdW2NIXWMoW2NIXVtjSF00KUMoPU8pW05IMl0=

> <s_epik_cmdline>
J2VwaWtfcHl0aG9uJywgJy1waHQnLCAnMC4wJywgJy1waCcsICc3LjQnLCAnLW50JywgJy1tYScsICc1MDAnLCAnLWltYWUnLCAnPGluZmlsZS5tYWU+JywgJy1vbWFlJywgJzxvdXRmaWxlLm1hZT4n

> <r_lp_tautomer_probability>
1

> <r_epik_Ionization_Penalty>
  0.0010

> <r_epik_Ionization_Penalty_Charging>
  0.0001

> <r_epik_Ionization_Penalty_Neutral>
  0.0010

> <r_epik_State_Penalty>
  0.0000

> <r_epik_Charging_Adjusted_Penalty>
5.79311335039239e-05

> <i_epik_Tot_Q>
-1

> <i_epik_Tot_abs_Q>
3

> <s_epik_Chemistry_Notes>
This compound contains an acetal/aminal-like group ( X-CH(R)-Y where X, Y are N, S, or O) that may be acid/base labile, releasing an aldehyde.

> <s_m_subgroup_title>
glide-dock_Nicaido_neutral_pv1

> <s_m_subgroupid>
glide-dock_Nicaido_neutral_pv1

> <b_m_subgroup_collapsed>
0

$$$$
Ceftizoxime
                    3D
 Schrodinger Suite 2022-2.
 37 39  0  0  1  0            999 V2000
  -30.8905  -17.9455  -29.0434 C   0  0  0  0  0  0
  -30.2802  -18.3489  -27.8388 O   0  0  0  0  0  0
  -31.2472  -18.2768  -26.8300 N   0  0  0  0  0  0
  -30.8153  -18.4667  -25.6401 C   0  0  0  0  0  0
  -31.8348  -18.4647  -24.5479 C   0  0  0  0  0  0
  -32.8598  -17.5446  -24.5344 C   0  0  0  0  0  0
  -33.9710  -17.8015  -23.2137 S   0  0  0  0  0  0
  -32.9911  -19.1675  -22.7171 C   0  0  0  0  0  0
  -33.3006  -19.9328  -21.6130 N   0  0  0  0  0  0
  -31.9482  -19.4014  -23.5094 N   0  0  0  0  0  0
  -29.3499  -18.7144  -25.2230 C   0  0  0  0  0  0
  -29.1685  -18.9234  -23.9112 N   0  0  0  0  0  0
  -27.9389  -19.4096  -23.2935 C   0  0  1  0  0  0
  -28.1996  -19.8180  -21.8304 C   0  0  1  0  0  0
  -27.6398  -21.1166  -22.1627 N   0  0  0  0  0  0
  -27.6840  -20.9212  -23.5393 C   0  0  0  0  0  0
  -27.5903  -21.6646  -24.4958 O   0  0  0  0  0  0
  -27.4643  -22.1069  -21.1732 C   0  0  0  0  0  0
  -27.2266  -23.5867  -21.6020 C   0  0  0  0  0  0
  -27.5639  -23.9488  -22.7517 O   0  5  0  0  0  0
  -26.7652  -24.3461  -20.7197 O   0  0  0  0  0  0
  -27.5144  -21.8171  -19.8498 C   0  0  0  0  0  0
  -27.7094  -20.4440  -19.2425 C   0  0  0  0  0  0
  -27.2714  -19.1448  -20.4147 S   0  0  0  0  0  0
  -28.4172  -18.7660  -26.0236 O   0  0  0  0  0  0
  -30.1425  -17.9594  -29.8357 H   0  0  0  0  0  0
  -31.7147  -18.6005  -29.3301 H   0  0  0  0  0  0
  -31.2767  -16.9293  -28.9520 H   0  0  0  0  0  0
  -33.0223  -16.7264  -25.2202 H   0  0  0  0  0  0
  -32.5662  -20.5035  -21.2177 H   0  0  0  0  0  0
  -33.9314  -19.5519  -20.9166 H   0  0  0  0  0  0
  -29.9825  -18.8695  -23.3125 H   0  0  0  0  0  0
  -27.0716  -18.7588  -23.4324 H   0  0  0  0  0  0
  -29.2597  -19.9151  -21.5805 H   0  0  0  0  0  0
  -27.4197  -22.6077  -19.1189 H   0  0  0  0  0  0
  -28.7497  -20.3338  -18.9354 H   0  0  0  0  0  0
  -27.0894  -20.3509  -18.3509 H   0  0  0  0  0  0
  1  2  1  0  0  0
  1 26  1  0  0  0
  1 27  1  0  0  0
  1 28  1  0  0  0
  2  3  1  0  0  0
  3  4  2  3  0  0
  4  5  1  0  0  0
  4 11  1  0  0  0
  5 10  1  0  0  0
  5  6  2  0  0  0
  6  7  1  0  0  0
  6 29  1  0  0  0
  7  8  1  0  0  0
  8  9  1  0  0  0
  8 10  2  0  0  0
  9 30  1  0  0  0
  9 31  1  0  0  0
 11 12  1  0  0  0
 11 25  2  0  0  0
 12 13  1  0  0  0
 12 32  1  0  0  0
 13 16  1  0  0  0
 13 14  1  0  0  0
 13 33  1  0  0  0
 14 24  1  0  0  0
 14 15  1  0  0  0
 14 34  1  0  0  0
 15 16  1  0  0  0
 15 18  1  0  0  0
 16 17  2  0  0  0
 18 19  1  0  0  0
 18 22  2  0  0  0
 19 20  1  0  0  0
 19 21  2  0  0  0
 22 23  1  0  0  0
 22 35  1  0  0  0
 23 24  1  0  0  0
 23 36  1  0  0  0
 23 37  1  0  0  0
M  CHG  1  20  -1
M  END
> <s_m_entry_id>
27438

> <s_m_entry_name>
data_maestro.5

> <s_m_Source_Path>
C:\Users\olshana1\Git\GramNeg-Accumulation\Gram Negative Permeation - OmpF

> <s_m_Source_File>
data_maestro.csv

> <i_m_Source_File_Index>
5

> <s_m_job_name>
glide-dock_Nicaido_neutral

> <s_i_glide_gridfile>
3POX-grid

> <i_i_glide_lignum>
6

> <i_i_glide_rotatable_bonds>
6

> <r_i_docking_score>
-5.00718889905543

> <r_i_glide_ligand_efficiency>
-0.200287555962217

> <r_i_glide_ligand_efficiency_sa>
-0.585644365748453

> <r_i_glide_ligand_efficiency_ln>
-1.18685382241888

> <r_i_glide_gscore>
-5.00718889905543

> <r_i_glide_lipo>
0

> <r_i_glide_hbond>
-0.904027825627686

> <r_i_glide_metal>
0

> <r_i_glide_rewards>
-0.797975220000684

> <r_i_glide_evdw>
-26.9740657806396

> <r_i_glide_ecoul>
-13.2147340774536

> <r_i_glide_erotb>
0.664075194683877

> <r_i_glide_esite>
-0.638347647460909

> <r_i_glide_emodel>
-63.5001733346695

> <r_i_glide_energy>
-40.1887998580933

> <r_i_glide_einternal>
1.61510407924652

> <i_i_glide_confnum>
5

> <i_i_glide_posenum>
362

> <r_i_glide_eff_state_penalty>
0

> <r_glide_res:A132_vdw>
6.77746525819179

> <r_glide_res:A132_coul>
-51.0959477398965

> <r_glide_res:A132_hbond>
-0.313764220201257

> <r_glide_res:A132_dist>
1.60983569059618

> <r_glide_res:A132_Eint>
-44.632246701906

> <r_glide_res:A117_vdw>
-3.90765607483758

> <r_glide_res:A117_coul>
26.4384499887585

> <r_glide_res:A117_hbond>
0

> <r_glide_res:A117_dist>
2.19799286291102

> <r_glide_res:A117_Eint>
22.5307939139209

> <r_glide_res:A113_vdw>
-2.91554421755813

> <r_glide_res:A113_coul>
17.6062996085905

> <r_glide_res:A113_hbond>
-0.268684078753601

> <r_glide_res:A113_dist>
2.13116859567038

> <r_glide_res:A113_Eint>
14.4220713122788

> <r_glide_res:A82_vdw>
1.98098427532266

> <r_glide_res:A82_coul>
-50.0468731814557

> <r_glide_res:A82_hbond>
-0.2

> <r_glide_res:A82_dist>
1.63148382420867

> <r_glide_res:A82_Eint>
-48.265888906133

> <r_glide_res:A42_vdw>
-1.30829677245082

> <r_glide_res:A42_coul>
-38.0247224803426

> <r_glide_res:A42_hbond>
-0.0965975205517938

> <r_glide_res:A42_dist>
2.25850619862052

> <r_glide_res:A42_Eint>
-39.4296167733452

> <r_glide_res:A16_vdw>
-1.30477039468913

> <r_glide_res:A16_coul>
-28.0539184901046

> <r_glide_res:A16_hbond>
0

> <r_glide_res:A16_dist>
1.90748669367198

> <r_glide_res:A16_Eint>
-29.3586888847937

> <s_m_source_file>
ligprep_Nicaido_neutral.maegz

> <i_m_source_file_index>
5

> <i_lp_mmshare_version>
58128

> <i_f3d_flags>
0

> <s_lp_Force_Field>
S-OPLS

> <r_lp_Energy>
52.500132

> <b_lp_Chiralities_Consistent>
1

> <s_lp_Variant>
Ceftizoxime-2

> <s_epik_input>
W05IMl1jKG4xKXNbY0hdYzEvQyg9TlxPW0NIM10pQyg9TylbTkhdW0NAQEhdMkMoPU8pTihbQ0BIXTIzKUMoQyg9TylbT0hdKT1bQ0hdW0NIMl1TMw==

> <s_epik_cmdline>
J2VwaWtfcHl0aG9uJywgJy1waHQnLCAnMC4wJywgJy1waCcsICc3LjQnLCAnLW50JywgJy1tYScsICc1MDAnLCAnLWltYWUnLCAnPGluZmlsZS5tYWU+JywgJy1vbWFlJywgJzxvdXRmaWxlLm1hZT4n

> <r_lp_tautomer_probability>
1

> <r_epik_Ionization_Penalty>
  0.0005

> <r_epik_Ionization_Penalty_Charging>
  0.0000

> <r_epik_Ionization_Penalty_Neutral>
  0.0005

> <r_epik_State_Penalty>
  0.0000

> <r_epik_Charging_Adjusted_Penalty>
4.86746471452517e-05

> <i_epik_Tot_Q>
-1

> <i_epik_Tot_abs_Q>
1

> <s_epik_Chemistry_Notes>
This compound has an imine and may undergo hydrolysis. This compound contains an acetal/aminal-like group ( X-CH(R)-Y where X, Y are N, S, or O) that may be acid/base labile, releasing an aldehyde.

> <s_m_subgroup_title>
glide-dock_Nicaido_neutral_pv1

> <s_m_subgroupid>
glide-dock_Nicaido_neutral_pv1

> <b_m_subgroup_collapsed>
0

$$$$
Cefotaxime
                    3D
 Schrodinger Suite 2022-2.
 46 48  0  0  1  0            999 V2000
  -25.4489  -19.5682  -25.8864 C   0  0  0  0  0  0
  -25.6677  -20.4838  -24.6939 C   0  0  0  0  0  0
  -25.1257  -19.9982  -23.5628 O   0  0  0  0  0  0
  -25.1732  -20.7395  -22.3494 C   0  0  0  0  0  0
  -26.5901  -20.9238  -21.8200 C   0  0  0  0  0  0
  -27.1488  -22.1222  -21.5334 C   0  0  0  0  0  0
  -28.4867  -22.1210  -21.1444 N   0  0  0  0  0  0
  -29.4647  -21.5496  -22.0607 C   0  0  1  0  0  0
  -30.5238  -22.0187  -21.0419 C   0  0  2  0  0  0
  -29.3919  -22.9275  -20.4938 C   0  0  0  0  0  0
  -29.2672  -23.9639  -19.8774 O   0  0  0  0  0  0
  -31.6846  -22.7375  -21.5927 N   0  0  0  0  0  0
  -31.7086  -23.8569  -22.3419 C   0  0  0  0  0  0
  -33.0992  -24.5044  -22.5221 C   0  0  0  0  0  0
  -34.1816  -24.0619  -21.5845 C   0  0  0  0  0  0
  -35.0662  -24.9846  -21.0660 C   0  0  0  0  0  0
  -36.2528  -24.2615  -20.0144 S   0  0  0  0  0  0
  -35.5109  -22.7036  -20.3241 C   0  0  0  0  0  0
  -35.9735  -21.5499  -19.7231 N   0  0  0  0  0  0
  -34.4784  -22.7533  -21.1657 N   0  0  0  0  0  0
  -33.3977  -25.4281  -23.3609 N   0  0  0  0  0  0
  -32.3687  -25.8226  -24.2291 O   0  0  0  0  0  0
  -32.8765  -26.8418  -25.0734 C   0  0  0  0  0  0
  -30.6828  -24.3497  -22.8135 O   0  0  0  0  0  0
  -29.0612  -19.7738  -22.3543 S   0  0  0  0  0  0
  -27.3996  -19.6451  -21.5986 C   0  0  0  0  0  0
  -26.4952  -23.5281  -21.7473 C   0  0  0  0  0  0
  -25.3879  -23.7541  -21.2147 O   0  5  0  0  0  0
  -27.1689  -24.3490  -22.4131 O   0  0  0  0  0  0
  -26.2745  -21.5499  -24.8130 O   0  0  0  0  0  0
  -24.4428  -19.1498  -25.8635 H   0  0  0  0  0  0
  -25.5665  -20.1245  -26.8133 H   0  0  0  0  0  0
  -26.1678  -18.7496  -25.8704 H   0  0  0  0  0  0
  -24.5972  -20.2000  -21.5977 H   0  0  0  0  0  0
  -24.6744  -21.6965  -22.4974 H   0  0  0  0  0  0
  -29.4742  -22.0960  -23.0058 H   0  0  0  0  0  0
  -30.8152  -21.1849  -20.4134 H   0  0  0  0  0  0
  -32.5836  -22.4114  -21.2545 H   0  0  0  0  0  0
  -35.0842  -26.0523  -21.2291 H   0  0  0  0  0  0
  -35.3224  -20.7735  -19.6185 H   0  0  0  0  0  0
  -36.6182  -21.6363  -18.9500 H   0  0  0  0  0  0
  -32.1055  -27.1499  -25.7793 H   0  0  0  0  0  0
  -33.1746  -27.7232  -24.5032 H   0  0  0  0  0  0
  -33.7347  -26.4934  -25.6509 H   0  0  0  0  0  0
  -27.5219  -19.4996  -20.5243 H   0  0  0  0  0  0
  -26.8859  -18.7532  -21.9676 H   0  0  0  0  0  0
  1  2  1  0  0  0
  1 31  1  0  0  0
  1 32  1  0  0  0
  1 33  1  0  0  0
  2  3  1  0  0  0
  2 30  2  0  0  0
  3  4  1  0  0  0
  4  5  1  0  0  0
  4 34  1  0  0  0
  4 35  1  0  0  0
  5 26  1  0  0  0
  5  6  2  0  0  0
  6  7  1  0  0  0
  6 27  1  0  0  0
  7 10  1  0  0  0
  7  8  1  0  0  0
  8  9  1  0  0  0
  8 25  1  0  0  0
  8 36  1  0  0  0
  9 10  1  0  0  0
  9 12  1  0  0  0
  9 37  1  0  0  0
 10 11  2  0  0  0
 12 13  1  0  0  0
 12 38  1  0  0  0
 13 14  1  0  0  0
 13 24  2  0  0  0
 14 15  1  0  0  0
 14 21  2  3  0  0
 15 20  1  0  0  0
 15 16  2  0  0  0
 16 17  1  0  0  0
 16 39  1  0  0  0
 17 18  1  0  0  0
 18 19  1  0  0  0
 18 20  2  0  0  0
 19 40  1  0  0  0
 19 41  1  0  0  0
 21 22  1  0  0  0
 22 23  1  0  0  0
 23 42  1  0  0  0
 23 43  1  0  0  0
 23 44  1  0  0  0
 25 26  1  0  0  0
 26 45  1  0  0  0
 26 46  1  0  0  0
 27 28  1  0  0  0
 27 29  2  0  0  0
M  CHG  1  28  -1
M  END
> <s_m_entry_id>
27439

> <s_m_entry_name>
data_maestro.6

> <s_m_Source_Path>
C:\Users\olshana1\Git\GramNeg-Accumulation\Gram Negative Permeation - OmpF

> <s_m_Source_File>
data_maestro.csv

> <i_m_Source_File_Index>
6

> <s_m_job_name>
glide-dock_Nicaido_neutral

> <s_i_glide_gridfile>
3POX-grid

> <i_i_glide_lignum>
8

> <i_i_glide_rotatable_bonds>
9

> <r_i_docking_score>
-5.00511744458392

> <r_i_glide_ligand_efficiency>
-0.166837248152797

> <r_i_glide_ligand_efficiency_sa>
-0.518402120076533

> <r_i_glide_ligand_efficiency_ln>
-1.13721721853195

> <r_i_glide_gscore>
-5.00511744458392

> <r_i_glide_lipo>
0

> <r_i_glide_hbond>
-1.13967049465999

> <r_i_glide_metal>
0

> <r_i_glide_rewards>
-0.307020111583454

> <r_i_glide_evdw>
-23.8949909210205

> <r_i_glide_ecoul>
-15.9180946350098

> <r_i_glide_erotb>
0.680611118548691

> <r_i_glide_esite>
-0.656574215586673

> <r_i_glide_emodel>
-62.9234181158973

> <r_i_glide_energy>
-39.8130855560303

> <r_i_glide_einternal>
5.85075378417969

> <i_i_glide_confnum>
239

> <i_i_glide_posenum>
7

> <r_i_glide_eff_state_penalty>
0

> <r_glide_res:A132_vdw>
-1.24386986829465

> <r_glide_res:A132_coul>
-52.8385222796615

> <r_glide_res:A132_hbond>
-0.36659432834695

> <r_glide_res:A132_dist>
2.07088122687793

> <r_glide_res:A132_Eint>
-54.4489864763031

> <r_glide_res:A117_vdw>
-1.35521889175788

> <r_glide_res:A117_coul>
19.0724479006579

> <r_glide_res:A117_hbond>
0

> <r_glide_res:A117_dist>
2.12340376139759

> <r_glide_res:A117_Eint>
17.7172290089

> <r_glide_res:A113_vdw>
-1.72296927125145

> <r_glide_res:A113_coul>
16.3796884373154

> <r_glide_res:A113_hbond>
-0.32

> <r_glide_res:A113_dist>
1.81388339293666

> <r_glide_res:A113_Eint>
14.3367191660639

> <r_glide_res:A82_vdw>
4.4221122214002

> <r_glide_res:A82_coul>
-59.5701019346795

> <r_glide_res:A82_hbond>
-0.312470210700625

> <r_glide_res:A82_dist>
1.53378910835718

> <r_glide_res:A82_Eint>
-55.46045992398

> <r_glide_res:A42_vdw>
-1.06196390307737

> <r_glide_res:A42_coul>
-35.7001163979066

> <r_glide_res:A42_hbond>
-0.140605955612416

> <r_glide_res:A42_dist>
2.06063512680244

> <r_glide_res:A42_Eint>
-36.9026862565964

> <r_glide_res:A16_vdw>
-0.29278275595175

> <r_glide_res:A16_coul>
-21.2303229601187

> <r_glide_res:A16_hbond>
0

> <r_glide_res:A16_dist>
5.01169605613489

> <r_glide_res:A16_Eint>
-21.5231057160704

> <s_m_source_file>
ligprep_Nicaido_neutral.maegz

> <i_m_source_file_index>
6

> <i_lp_mmshare_version>
58128

> <i_f3d_flags>
0

> <s_lp_Force_Field>
S-OPLS

> <r_lp_Energy>
51.702138

> <b_lp_Chiralities_Consistent>
1

> <s_lp_Variant>
Cefotaxime-2

> <s_epik_input>
W0NIM11DKD1PKU9bQ0gyXUMoPUMxQyg9TylbT0hdKVtDSDJdU1tDQEBIXShOMTIpW0NASF0oQzI9TylbTkhdQyg9TykvQyg9Ti9PW0NIM10pYzNbY0hdc2MobjMpW05IMl0=

> <s_epik_cmdline>
J2VwaWtfcHl0aG9uJywgJy1waHQnLCAnMC4wJywgJy1waCcsICc3LjQnLCAnLW50JywgJy1tYScsICc1MDAnLCAnLWltYWUnLCAnPGluZmlsZS5tYWU+JywgJy1vbWFlJywgJzxvdXRmaWxlLm1hZT4n

> <r_lp_tautomer_probability>
1

> <r_epik_Ionization_Penalty>
  0.0004

> <r_epik_Ionization_Penalty_Charging>
  0.0000

> <r_epik_Ionization_Penalty_Neutral>
  0.0004

> <r_epik_State_Penalty>
  0.0000

> <r_epik_Charging_Adjusted_Penalty>
5.45682606121274e-06

> <i_epik_Tot_Q>
-1

> <i_epik_Tot_abs_Q>
1

> <s_epik_Chemistry_Notes>
This compound has an ester and may undergo hydrolysis at high or low pH. This compound has an imine and may undergo hydrolysis. This compound contains an acetal/aminal-like group ( X-CH(R)-Y where X, Y are N, S, or O) that may be acid/base labile, releasing an aldehyde.

> <s_m_subgroup_title>
glide-dock_Nicaido_neutral_pv1

> <s_m_subgroupid>
glide-dock_Nicaido_neutral_pv1

> <b_m_subgroup_collapsed>
0

$$$$
Ofloxacin
                    3D
 Schrodinger Suite 2022-2.
 46 49  0  0  1  0            999 V2000
  -24.5023  -22.1667  -15.6389 C   0  0  0  0  0  0
  -25.1453  -22.2475  -17.0291 C   0  0  1  0  0  0
  -25.4806  -20.8510  -17.5554 C   0  0  0  0  0  0
  -26.3740  -21.0367  -18.6305 O   0  0  0  0  0  0
  -25.9345  -21.9212  -19.5847 C   0  0  0  0  0  0
  -24.8907  -22.8627  -19.3568 C   0  0  0  0  0  0
  -24.3402  -22.9548  -18.0365 N   0  0  0  0  0  0
  -23.2692  -23.7951  -17.7408 C   0  0  0  0  0  0
  -22.6808  -24.6666  -18.5855 C   0  0  0  0  0  0
  -23.2202  -24.7136  -19.9750 C   0  0  0  0  0  0
  -24.3347  -23.7624  -20.2938 C   0  0  0  0  0  0
  -24.9446  -23.7126  -21.5677 C   0  0  0  0  0  0
  -26.0427  -22.8704  -21.8427 C   0  0  0  0  0  0
  -26.6325  -22.9535  -23.0621 F   0  0  0  0  0  0
  -26.5408  -21.9711  -20.8685 C   0  0  0  0  0  0
  -27.6639  -21.1801  -21.1995 N   0  0  0  0  0  0
  -28.9381  -21.7837  -20.8213 C   0  0  0  0  0  0
  -30.1141  -21.0543  -21.4993 C   0  0  0  0  0  0
  -30.0733  -19.6010  -21.2134 N   0  3  0  0  0  0
  -28.7689  -18.9839  -21.5586 C   0  0  0  0  0  0
  -27.5927  -19.7432  -20.9170 C   0  0  0  0  0  0
  -31.2251  -18.8558  -21.7641 C   0  0  0  0  0  0
  -22.8228  -25.5133  -20.8261 O   0  0  0  0  0  0
  -21.4843  -25.5496  -18.0549 C   0  0  0  0  0  0
  -20.7029  -26.0615  -18.8890 O   0  5  0  0  0  0
  -21.4442  -25.7317  -16.8136 O   0  0  0  0  0  0
  -25.1689  -21.6317  -14.9748 H   0  0  0  0  0  0
  -24.3628  -23.1496  -15.1933 H   0  0  0  0  0  0
  -23.5465  -21.6423  -15.6531 H   0  0  0  0  0  0
  -26.0793  -22.7987  -16.9058 H   0  0  0  0  0  0
  -25.9690  -20.2272  -16.8133 H   0  0  0  0  0  0
  -24.5870  -20.3148  -17.8795 H   0  0  0  0  0  0
  -22.8955  -23.7033  -16.7336 H   0  0  0  0  0  0
  -24.5885  -24.3636  -22.3524 H   0  0  0  0  0  0
  -28.9523  -22.8393  -21.0934 H   0  0  0  0  0  0
  -29.0506  -21.7344  -19.7358 H   0  0  0  0  0  0
  -31.0561  -21.4690  -21.1371 H   0  0  0  0  0  0
  -30.0823  -21.2135  -22.5780 H   0  0  0  0  0  0
  -28.7670  -17.9497  -21.2134 H   0  0  0  0  0  0
  -28.6512  -18.9628  -22.6430 H   0  0  0  0  0  0
  -27.6411  -19.5591  -19.8447 H   0  0  0  0  0  0
  -26.6446  -19.3352  -21.2703 H   0  0  0  0  0  0
  -31.2262  -18.8780  -22.8543 H   0  0  0  0  0  0
  -32.1633  -19.2820  -21.4062 H   0  0  0  0  0  0
  -31.1947  -17.8134  -21.4428 H   0  0  0  0  0  0
  -30.1851  -19.5495  -20.1958 H   0  0  0  0  0  0
  1  2  1  0  0  0
  1 27  1  0  0  0
  1 28  1  0  0  0
  1 29  1  0  0  0
  2  7  1  0  0  0
  2  3  1  0  0  0
  2 30  1  0  0  0
  3  4  1  0  0  0
  3 31  1  0  0  0
  3 32  1  0  0  0
  4  5  1  0  0  0
  5 15  1  0  0  0
  5  6  2  0  0  0
  6 11  1  0  0  0
  6  7  1  0  0  0
  7  8  1  0  0  0
  8  9  2  0  0  0
  8 33  1  0  0  0
  9 10  1  0  0  0
  9 24  1  0  0  0
 10 11  1  0  0  0
 10 23  2  0  0  0
 11 12  2  0  0  0
 12 13  1  0  0  0
 12 34  1  0  0  0
 13 14  1  0  0  0
 13 15  2  0  0  0
 15 16  1  0  0  0
 16 21  1  0  0  0
 16 17  1  0  0  0
 17 18  1  0  0  0
 17 35  1  0  0  0
 17 36  1  0  0  0
 18 19  1  0  0  0
 18 37  1  0  0  0
 18 38  1  0  0  0
 19 20  1  0  0  0
 19 22  1  0  0  0
 19 46  1  0  0  0
 20 21  1  0  0  0
 20 39  1  0  0  0
 20 40  1  0  0  0
 21 41  1  0  0  0
 21 42  1  0  0  0
 22 43  1  0  0  0
 22 44  1  0  0  0
 22 45  1  0  0  0
 24 25  1  0  0  0
 24 26  2  0  0  0
M  CHG  2  19   1  25  -1
M  END
> <s_m_entry_id>
27440

> <s_m_entry_name>
data_maestro.32

> <s_m_Source_Path>
C:\Users\olshana1\Git\GramNeg-Accumulation\Gram Negative Permeation - OmpF

> <s_m_Source_File>
data_maestro.csv

> <i_m_Source_File_Index>
32

> <s_m_job_name>
glide-dock_Nicaido_neutral

> <s_i_glide_gridfile>
3POX-grid

> <i_i_glide_lignum>
41

> <i_i_glide_rotatable_bonds>
2

> <r_i_docking_score>
-5.00203507358466

> <r_i_glide_ligand_efficiency>
-0.192385964368641

> <r_i_glide_ligand_efficiency_sa>
-0.569942662439882

> <r_i_glide_ligand_efficiency_ln>
-1.17471152401557

> <r_i_glide_gscore>
-5.00203507358466

> <r_i_glide_lipo>
-0.0320419506830391

> <r_i_glide_hbond>
-0.338733169533368

> <r_i_glide_metal>
0

> <r_i_glide_rewards>
-0.945221570454544

> <r_i_glide_evdw>
-22.4194431304932

> <r_i_glide_ecoul>
-15.807017326355

> <r_i_glide_erotb>
0.146950134654495

> <r_i_glide_esite>
-0.340963762090296

> <r_i_glide_emodel>
-61.4678117561294

> <r_i_glide_energy>
-38.2264604568481

> <r_i_glide_einternal>
1.27661776542664

> <i_i_glide_confnum>
2

> <i_i_glide_posenum>
334

> <r_i_glide_eff_state_penalty>
0

> <r_glide_res:A132_vdw>
-1.90243969306176

> <r_glide_res:A132_coul>
-2.99922869522924

> <r_glide_res:A132_hbond>
0

> <r_glide_res:A132_dist>
2.34326627230369

> <r_glide_res:A132_Eint>
-4.901668388291

> <r_glide_res:A117_vdw>
-0.643078128154148

> <r_glide_res:A117_coul>
-11.4520795807249

> <r_glide_res:A117_hbond>
0

> <r_glide_res:A117_dist>
2.34805138377536

> <r_glide_res:A117_Eint>
-12.095157708879

> <r_glide_res:A113_vdw>
-1.04383737420033

> <r_glide_res:A113_coul>
-37.9971455748666

> <r_glide_res:A113_hbond>
-0.2

> <r_glide_res:A113_dist>
1.72309430521118

> <r_glide_res:A113_Eint>
-39.2409829490669

> <r_glide_res:A82_vdw>
-0.994208460135518

> <r_glide_res:A82_coul>
1.07916632800303

> <r_glide_res:A82_hbond>
0

> <r_glide_res:A82_dist>
2.4451352935361

> <r_glide_res:A82_Eint>
0.084957867867516

> <r_glide_res:A42_vdw>
-0.417626307842972

> <r_glide_res:A42_coul>
2.46709151267507

> <r_glide_res:A42_hbond>
0

> <r_glide_res:A42_dist>
3.09769451087025

> <r_glide_res:A42_Eint>
2.0494652048321

> <r_glide_res:A16_vdw>
-0.0674855680885595

> <r_glide_res:A16_coul>
8.35836113406585

> <r_glide_res:A16_hbond>
0

> <r_glide_res:A16_dist>
5.54579465667778

> <r_glide_res:A16_Eint>
8.29087556597729

> <s_m_source_file>
ligprep_Nicaido_neutral.maegz

> <i_m_source_file_index>
32

> <i_lp_mmshare_version>
58128

> <i_f3d_flags>
0

> <s_lp_Force_Field>
S-OPLS

> <r_lp_Energy>
60.370079

> <b_lp_Chiralities_Consistent>
1

> <s_lp_Variant>
Ofloxacin-1

> <s_epik_input>
TzFbQ0gyXVtDQEhdKFtDSDNdKW4oYzJjMTMpW2NIXWMoQyg9TylbT0hdKWMoPU8pYzJbY0hdYyhGKWMzTjRbQ0gyXVtDSDJdTihbQ0gzXSlbQ0gyXVtDSDJdNA==

> <s_epik_cmdline>
J2VwaWtfcHl0aG9uJywgJy1waHQnLCAnMC4wJywgJy1waCcsICc3LjQnLCAnLW50JywgJy1tYScsICc1MDAnLCAnLWltYWUnLCAnPGluZmlsZS5tYWU+JywgJy1vbWFlJywgJzxvdXRmaWxlLm1hZT4n

> <r_lp_tautomer_probability>
1

> <r_epik_Ionization_Penalty>
  0.1907

> <r_epik_Ionization_Penalty_Charging>
  0.1907

> <r_epik_Ionization_Penalty_Neutral>
  0.0000

> <r_epik_State_Penalty>
  0.0000

> <r_epik_Charging_Adjusted_Penalty>
0.190712686691679

> <i_epik_Tot_Q>
0

> <i_epik_Tot_abs_Q>
2

> <s_m_subgroup_title>
glide-dock_Nicaido_neutral_pv1

> <s_m_subgroupid>
glide-dock_Nicaido_neutral_pv1

> <b_m_subgroup_collapsed>
0

$$$$
Cefamandole
                    3D
 Schrodinger Suite 2022-2.
 48 51  0  0  1  0            999 V2000
  -34.6200  -16.2391  -23.6129 C   0  0  0  0  0  0
  -34.0754  -16.4194  -24.9429 N   0  0  0  0  0  0
  -33.2755  -17.3626  -25.4588 C   0  0  0  0  0  0
  -32.6767  -18.7502  -24.5464 S   0  0  0  0  0  0
  -30.9751  -18.7769  -25.1789 C   0  0  0  0  0  0
  -29.9793  -19.4096  -24.2075 C   0  0  0  0  0  0
  -29.3082  -20.5810  -24.4183 C   0  0  0  0  0  0
  -28.3299  -21.0486  -23.5133 N   0  0  0  0  0  0
  -27.7004  -20.1749  -22.5405 C   0  0  2  0  0  0
  -26.8721  -21.3854  -22.0727 C   0  0  2  0  0  0
  -27.4686  -22.1148  -23.2994 C   0  0  0  0  0  0
  -27.2599  -23.1489  -23.8992 O   0  0  0  0  0  0
  -27.2919  -21.8971  -20.7686 N   0  0  0  0  0  0
  -26.8920  -23.0657  -20.2436 C   0  0  0  0  0  0
  -27.0785  -23.2419  -18.7284 C   0  0  2  0  0  0
  -25.8841  -22.5974  -18.0303 C   0  0  0  0  0  0
  -24.7695  -23.3634  -17.6126 C   0  0  0  0  0  0
  -23.6711  -22.7395  -16.9879 C   0  0  0  0  0  0
  -23.6705  -21.3458  -16.7916 C   0  0  0  0  0  0
  -24.7705  -20.5763  -17.2134 C   0  0  0  0  0  0
  -25.8735  -21.1993  -17.8254 C   0  0  0  0  0  0
  -27.2363  -24.6173  -18.4130 O   0  0  0  0  0  0
  -26.3444  -23.9491  -20.9098 O   0  0  0  0  0  0
  -29.0174  -19.4069  -21.5701 S   0  0  0  0  0  0
  -29.7806  -18.5392  -22.9631 C   0  0  0  0  0  0
  -29.6163  -21.5503  -25.6133 C   0  0  0  0  0  0
  -29.5689  -21.0847  -26.7704 O   0  5  0  0  0  0
  -29.8240  -22.7497  -25.3322 O   0  0  0  0  0  0
  -33.0336  -17.1146  -26.7408 N   0  0  0  0  0  0
  -33.7369  -15.9509  -26.9954 N   0  0  0  0  0  0
  -34.3685  -15.5412  -25.9334 N   0  0  0  0  0  0
  -34.2026  -16.9730  -22.9226 H   0  0  0  0  0  0
  -34.3708  -15.2462  -23.2310 H   0  0  0  0  0  0
  -35.7044  -16.3522  -23.6353 H   0  0  0  0  0  0
  -30.6453  -17.7507  -25.3473 H   0  0  0  0  0  0
  -30.9918  -19.2407  -26.1598 H   0  0  0  0  0  0
  -27.0906  -19.4161  -23.0374 H   0  0  0  0  0  0
  -25.8015  -21.1899  -22.1350 H   0  0  0  0  0  0
  -27.8024  -21.2498  -20.1812 H   0  0  0  0  0  0
  -27.9904  -22.7289  -18.4142 H   0  0  0  0  0  0
  -24.7524  -24.4311  -17.7646 H   0  0  0  0  0  0
  -22.8277  -23.3286  -16.6623 H   0  0  0  0  0  0
  -22.8300  -20.8655  -16.3113 H   0  0  0  0  0  0
  -24.7780  -19.5062  -17.0590 H   0  0  0  0  0  0
  -26.7147  -20.5931  -18.1312 H   0  0  0  0  0  0
  -27.2961  -24.6856  -17.4664 H   0  0  0  0  0  0
  -29.1689  -17.6846  -23.2436 H   0  0  0  0  0  0
  -30.7308  -18.1394  -22.6094 H   0  0  0  0  0  0
  1  2  1  0  0  0
  1 32  1  0  0  0
  1 33  1  0  0  0
  1 34  1  0  0  0
  2 31  1  0  0  0
  2  3  1  0  0  0
  3  4  1  0  0  0
  3 29  2  0  0  0
  4  5  1  0  0  0
  5  6  1  0  0  0
  5 35  1  0  0  0
  5 36  1  0  0  0
  6 25  1  0  0  0
  6  7  2  0  0  0
  7  8  1  0  0  0
  7 26  1  0  0  0
  8 11  1  0  0  0
  8  9  1  0  0  0
  9 10  1  0  0  0
  9 24  1  0  0  0
  9 37  1  0  0  0
 10 11  1  0  0  0
 10 13  1  0  0  0
 10 38  1  0  0  0
 11 12  2  0  0  0
 13 14  1  0  0  0
 13 39  1  0  0  0
 14 15  1  0  0  0
 14 23  2  0  0  0
 15 16  1  0  0  0
 15 22  1  0  0  0
 15 40  1  0  0  0
 16 21  1  0  0  0
 16 17  2  0  0  0
 17 18  1  0  0  0
 17 41  1  0  0  0
 18 19  2  0  0  0
 18 42  1  0  0  0
 19 20  1  0  0  0
 19 43  1  0  0  0
 20 21  2  0  0  0
 20 44  1  0  0  0
 21 45  1  0  0  0
 22 46  1  0  0  0
 24 25  1  0  0  0
 25 47  1  0  0  0
 25 48  1  0  0  0
 26 27  1  0  0  0
 26 28  2  0  0  0
 29 30  1  0  0  0
 30 31  2  0  0  0
M  CHG  1  27  -1
M  END
> <s_m_entry_id>
27441

> <s_m_entry_name>
data_maestro.9

> <s_m_Source_Path>
C:\Users\olshana1\Git\GramNeg-Accumulation\Gram Negative Permeation - OmpF

> <s_m_Source_File>
data_maestro.csv

> <i_m_Source_File_Index>
9

> <s_m_job_name>
glide-dock_Nicaido_neutral

> <s_i_glide_gridfile>
3POX-grid

> <i_i_glide_lignum>
12

> <i_i_glide_rotatable_bonds>
9

> <r_i_docking_score>
-4.99767134023637

> <r_i_glide_ligand_efficiency>
-0.161215204523754

> <r_i_glide_ligand_efficiency_sa>
-0.50643832378254

> <r_i_glide_ligand_efficiency_ln>
-1.12712804745603

> <r_i_glide_gscore>
-4.99767134023637

> <r_i_glide_lipo>
0

> <r_i_glide_hbond>
-0.674328594750081

> <r_i_glide_metal>
0

> <r_i_glide_rewards>
-0.240849768683912

> <r_i_glide_evdw>
-33.7433891296387

> <r_i_glide_ecoul>
-16.5534000396729

> <r_i_glide_erotb>
0.567285116635731

> <r_i_glide_esite>
-0.479598631005241

> <r_i_glide_emodel>
-75.4141181804335

> <r_i_glide_energy>
-50.2967891693115

> <r_i_glide_einternal>
6.45369052886963

> <i_i_glide_confnum>
113

> <i_i_glide_posenum>
312

> <r_i_glide_eff_state_penalty>
0

> <r_glide_res:A132_vdw>
-0.955378973926482

> <r_glide_res:A132_coul>
-35.4997715870052

> <r_glide_res:A132_hbond>
-0.16

> <r_glide_res:A132_dist>
1.81645268179601

> <r_glide_res:A132_Eint>
-36.6151505609316

> <r_glide_res:A117_vdw>
-3.09268956225363

> <r_glide_res:A117_coul>
20.8528166189419

> <r_glide_res:A117_hbond>
0

> <r_glide_res:A117_dist>
2.22827413848767

> <r_glide_res:A117_Eint>
17.7601270566883

> <r_glide_res:A113_vdw>
-2.37153222098776

> <r_glide_res:A113_coul>
17.8170697681045

> <r_glide_res:A113_hbond>
0

> <r_glide_res:A113_dist>
3.34772662280877

> <r_glide_res:A113_Eint>
15.4455375471167

> <r_glide_res:A82_vdw>
-1.17307121662163

> <r_glide_res:A82_coul>
-40.7951520997521

> <r_glide_res:A82_hbond>
-0.0914688726960972

> <r_glide_res:A82_dist>
2.12887531649683

> <r_glide_res:A82_Eint>
-42.0596921890698

> <r_glide_res:A42_vdw>
-0.511950059280267

> <r_glide_res:A42_coul>
-51.3778829729898

> <r_glide_res:A42_hbond>
-0.256378224068615

> <r_glide_res:A42_dist>
1.76466797404122

> <r_glide_res:A42_Eint>
-52.1462112563387

> <r_glide_res:A16_vdw>
4.59750153198312

> <r_glide_res:A16_coul>
-55.0691236102444

> <r_glide_res:A16_hbond>
-0.166481497985369

> <r_glide_res:A16_dist>
1.53296299597074

> <r_glide_res:A16_Eint>
-50.6381035762467

> <s_m_source_file>
ligprep_Nicaido_neutral.maegz

> <i_m_source_file_index>
9

> <i_lp_mmshare_version>
58128

> <i_f3d_flags>
0

> <s_lp_Force_Field>
S-OPLS

> <r_lp_Energy>
50.610726

> <b_lp_Chiralities_Consistent>
1

> <s_lp_Variant>
Cefamandole-1

> <s_epik_input>
bjFubmMobjFbQ0gzXSlTW0NIMl1DKD1DMkMoPU8pW09IXSlbQ0gyXVNbQ0BIXShOMjMpW0NASF0oQzM9TylbTkhdQyg9TylbQ0BASF0oW09IXSljNFtjSF1bY0hdW2NIXVtjSF1bY0hdNA==

> <s_epik_cmdline>
J2VwaWtfcHl0aG9uJywgJy1waHQnLCAnMC4wJywgJy1waCcsICc3LjQnLCAnLW50JywgJy1tYScsICc1MDAnLCAnLWltYWUnLCAnPGluZmlsZS5tYWU+JywgJy1vbWFlJywgJzxvdXRmaWxlLm1hZT4n

> <r_lp_tautomer_probability>
1

> <r_epik_Ionization_Penalty>
  0.0002

> <r_epik_Ionization_Penalty_Charging>
  0.0000

> <r_epik_Ionization_Penalty_Neutral>
  0.0002

> <r_epik_State_Penalty>
  0.0000

> <r_epik_Charging_Adjusted_Penalty>
8.65070171415913e-06

> <i_epik_Tot_Q>
-1

> <i_epik_Tot_abs_Q>
1

> <s_epik_Chemistry_Notes>
This compound contains an acetal/aminal-like group ( X-CH(R)-Y where X, Y are N, S, or O) that may be acid/base labile, releasing an aldehyde.

> <s_m_subgroup_title>
glide-dock_Nicaido_neutral_pv1

> <s_m_subgroupid>
glide-dock_Nicaido_neutral_pv1

> <b_m_subgroup_collapsed>
0

$$$$
Cefazolin
                    3D
 Schrodinger Suite 2022-2.
 42 45  0  0  1  0            999 V2000
  -37.1637  -15.5771  -23.5369 C   0  0  0  0  0  0
  -35.9776  -16.4706  -23.6657 C   0  0  0  0  0  0
  -35.9673  -17.7280  -23.2133 N   0  0  0  0  0  0
  -34.7422  -18.3475  -23.4183 N   0  0  0  0  0  0
  -33.8526  -17.5433  -24.0152 C   0  0  0  0  0  0
  -34.4757  -15.9496  -24.4137 S   0  0  0  0  0  0
  -32.1783  -17.9535  -24.4127 S   0  0  0  0  0  0
  -32.0965  -19.7114  -23.9371 C   0  0  0  0  0  0
  -30.7664  -20.0743  -23.2852 C   0  0  0  0  0  0
  -29.7583  -20.7744  -23.8716 C   0  0  0  0  0  0
  -28.6762  -21.1663  -23.0567 N   0  0  0  0  0  0
  -27.9724  -20.1915  -22.2308 C   0  0  2  0  0  0
  -27.1574  -21.3787  -21.6749 C   0  0  2  0  0  0
  -27.6973  -22.1400  -22.9133 C   0  0  0  0  0  0
  -27.4116  -23.1496  -23.5242 O   0  0  0  0  0  0
  -27.6475  -21.8682  -20.3786 N   0  0  0  0  0  0
  -27.3664  -23.0730  -19.8532 C   0  0  0  0  0  0
  -27.7985  -23.3117  -18.3972 C   0  0  0  0  0  0
  -27.9686  -24.7185  -18.0463 N   0  0  0  0  0  0
  -29.0437  -25.3725  -17.6134 C   0  0  0  0  0  0
  -28.7689  -26.6363  -17.3202 N   0  0  0  0  0  0
  -27.4263  -26.7496  -17.6133 N   0  0  0  0  0  0
  -26.9418  -25.6159  -18.0397 N   0  0  0  0  0  0
  -26.7692  -23.9496  -20.4851 O   0  0  0  0  0  0
  -29.1067  -19.1796  -21.2134 S   0  0  0  0  0  0
  -30.7292  -19.7310  -21.7974 C   0  0  0  0  0  0
  -29.7701  -21.2824  -25.3714 C   0  0  0  0  0  0
  -29.1690  -22.3496  -25.6134 O   0  5  0  0  0  0
  -30.3691  -20.6003  -26.2318 O   0  0  0  0  0  0
  -38.0839  -16.1480  -23.6620 H   0  0  0  0  0  0
  -37.1691  -15.1116  -22.5509 H   0  0  0  0  0  0
  -37.1324  -14.7944  -24.2952 H   0  0  0  0  0  0
  -32.3275  -20.3237  -24.8055 H   0  0  0  0  0  0
  -32.8647  -19.9650  -23.2093 H   0  0  0  0  0  0
  -27.3647  -19.5351  -22.8595 H   0  0  0  0  0  0
  -26.0856  -21.1784  -21.6877 H   0  0  0  0  0  0
  -28.1910  -21.2102  -19.8315 H   0  0  0  0  0  0
  -28.7386  -22.7905  -18.2048 H   0  0  0  0  0  0
  -27.0545  -22.8794  -17.7269 H   0  0  0  0  0  0
  -30.0125  -24.9162  -17.4934 H   0  0  0  0  0  0
  -31.4410  -18.9382  -21.5642 H   0  0  0  0  0  0
  -31.0353  -20.6069  -21.2246 H   0  0  0  0  0  0
  1  2  1  0  0  0
  1 30  1  0  0  0
  1 31  1  0  0  0
  1 32  1  0  0  0
  2  6  1  0  0  0
  2  3  2  0  0  0
  3  4  1  0  0  0
  4  5  2  0  0  0
  5  6  1  0  0  0
  5  7  1  0  0  0
  7  8  1  0  0  0
  8  9  1  0  0  0
  8 33  1  0  0  0
  8 34  1  0  0  0
  9 26  1  0  0  0
  9 10  2  0  0  0
 10 11  1  0  0  0
 10 27  1  0  0  0
 11 14  1  0  0  0
 11 12  1  0  0  0
 12 13  1  0  0  0
 12 25  1  0  0  0
 12 35  1  0  0  0
 13 14  1  0  0  0
 13 16  1  0  0  0
 13 36  1  0  0  0
 14 15  2  0  0  0
 16 17  1  0  0  0
 16 37  1  0  0  0
 17 18  1  0  0  0
 17 24  2  0  0  0
 18 19  1  0  0  0
 18 38  1  0  0  0
 18 39  1  0  0  0
 19 23  1  0  0  0
 19 20  1  0  0  0
 20 21  2  0  0  0
 20 40  1  0  0  0
 21 22  1  0  0  0
 22 23  2  0  0  0
 25 26  1  0  0  0
 26 41  1  0  0  0
 26 42  1  0  0  0
 27 28  1  0  0  0
 27 29  2  0  0  0
M  CHG  1  28  -1
M  END
> <s_m_entry_id>
27442

> <s_m_entry_name>
data_maestro.2

> <s_m_Source_Path>
C:\Users\olshana1\Git\GramNeg-Accumulation\Gram Negative Permeation - OmpF

> <s_m_Source_File>
data_maestro.csv

> <i_m_Source_File_Index>
2

> <s_m_job_name>
glide-dock_Nicaido_neutral

> <s_i_glide_gridfile>
3POX-grid

> <i_i_glide_lignum>
2

> <i_i_glide_rotatable_bonds>
8

> <r_i_docking_score>
-4.99337754911926

> <r_i_glide_ligand_efficiency>
-0.17218543272825

> <r_i_glide_ligand_efficiency_sa>
-0.529008201515226

> <r_i_glide_ligand_efficiency_ln>
-1.14335683761883

> <r_i_glide_gscore>
-4.99337754911926

> <r_i_glide_lipo>
-0.148551624015588

> <r_i_glide_hbond>
-0.725275866255412

> <r_i_glide_metal>
0

> <r_i_glide_rewards>
-0.315451260009689

> <r_i_glide_evdw>
-35.6178321838379

> <r_i_glide_ecoul>
-12.5217132568359

> <r_i_glide_erotb>
0.585623573400065

> <r_i_glide_esite>
-0.730573774521349

> <r_i_glide_emodel>
-73.4253846168409

> <r_i_glide_energy>
-48.1395454406738

> <r_i_glide_einternal>
5.03412437438965

> <i_i_glide_confnum>
169

> <i_i_glide_posenum>
365

> <r_i_glide_eff_state_penalty>
0

> <r_glide_res:A132_vdw>
-3.77328404791609

> <r_glide_res:A132_coul>
-32.8937335131045

> <r_glide_res:A132_hbond>
-0.231921007314419

> <r_glide_res:A132_dist>
1.99789389986509

> <r_glide_res:A132_Eint>
-36.898938568335

> <r_glide_res:A117_vdw>
-2.76173645342584

> <r_glide_res:A117_coul>
23.9252745076689

> <r_glide_res:A117_hbond>
0

> <r_glide_res:A117_dist>
2.80275319852042

> <r_glide_res:A117_Eint>
21.1635380542431

> <r_glide_res:A113_vdw>
-3.62487762578861

> <r_glide_res:A113_coul>
11.4960494032057

> <r_glide_res:A113_hbond>
0

> <r_glide_res:A113_dist>
2.63053612951668

> <r_glide_res:A113_Eint>
7.87117177741708

> <r_glide_res:A82_vdw>
-1.36556360548913

> <r_glide_res:A82_coul>
-37.3316661605345

> <r_glide_res:A82_hbond>
-0.122830811658785

> <r_glide_res:A82_dist>
2.1269174837374

> <r_glide_res:A82_Eint>
-38.8200605776824

> <r_glide_res:A42_vdw>
1.25630988040956

> <r_glide_res:A42_coul>
-50.9729875561385

> <r_glide_res:A42_hbond>
-0.207863952164518

> <r_glide_res:A42_dist>
1.68226458662238

> <r_glide_res:A42_Eint>
-49.9245416278934

> <r_glide_res:A16_vdw>
-0.0554563226670802

> <r_glide_res:A16_coul>
-49.4275190118422

> <r_glide_res:A16_hbond>
-0.16266009511769

> <r_glide_res:A16_dist>
1.97064348179891

> <r_glide_res:A16_Eint>
-49.6456354296269

> <s_m_source_file>
ligprep_Nicaido_neutral.maegz

> <i_m_source_file_index>
2

> <i_lp_mmshare_version>
58128

> <i_f3d_flags>
0

> <s_lp_Force_Field>
S-OPLS

> <r_lp_Energy>
37.420105

> <b_lp_Chiralities_Consistent>
1

> <s_lp_Variant>
Cefazolin-1

> <s_epik_input>
W0NIM11jMW5uYyhzMSlTW0NIMl1DKD1DMkMoPU8pW09IXSlbQ0gyXVNbQ0BIXShOMjMpW0NASF0oQzM9TylbTkhdQyg9TylbQ0gyXW40W2NIXW5ubjQ=

> <s_epik_cmdline>
J2VwaWtfcHl0aG9uJywgJy1waHQnLCAnMC4wJywgJy1waCcsICc3LjQnLCAnLW50JywgJy1tYScsICc1MDAnLCAnLWltYWUnLCAnPGluZmlsZS5tYWU+JywgJy1vbWFlJywgJzxvdXRmaWxlLm1hZT4n

> <r_lp_tautomer_probability>
1

> <r_epik_Ionization_Penalty>
  0.0000

> <r_epik_Ionization_Penalty_Charging>
  0.0000

> <r_epik_Ionization_Penalty_Neutral>
  0.0000

> <r_epik_State_Penalty>
  0.0000

> <r_epik_Charging_Adjusted_Penalty>
8.33047029083912e-06

> <i_epik_Tot_Q>
-1

> <i_epik_Tot_abs_Q>
1

> <s_epik_Chemistry_Notes>
This compound contains an acetal/aminal-like group ( X-CH(R)-Y where X, Y are N, S, or O) that may be acid/base labile, releasing an aldehyde.

> <s_m_subgroup_title>
glide-dock_Nicaido_neutral_pv1

> <s_m_subgroupid>
glide-dock_Nicaido_neutral_pv1

> <b_m_subgroup_collapsed>
0

$$$$
Imipenem
                    3D
 Schrodinger Suite 2022-2.
 37 38  0  0  1  0            999 V2000
  -22.4140  -18.9820  -24.8832 C   0  0  0  0  0  0
  -22.9767  -20.3696  -25.2151 C   0  0  2  0  0  0
  -23.4806  -21.1177  -23.9735 C   0  0  1  0  0  0
  -24.7082  -20.5886  -23.1988 C   0  0  2  0  0  0
  -24.9513  -20.7275  -21.6829 C   0  0  0  0  0  0
  -26.1915  -21.5888  -21.6360 C   0  0  0  0  0  0
  -27.1711  -21.8097  -20.1720 S   0  0  0  0  0  0
  -27.1948  -20.1892  -19.3622 C   0  0  0  0  0  0
  -27.7100  -19.0725  -20.2837 C   0  0  0  0  0  0
  -29.1689  -19.0658  -20.4134 N   0  3  0  0  0  0
  -29.7939  -18.1809  -21.2057 C   0  0  0  0  0  0
  -31.1281  -18.0499  -21.2134 N   0  0  0  0  0  0
  -26.4116  -22.1600  -22.8229 C   0  0  0  0  0  0
  -25.4569  -21.7206  -23.7315 N   0  0  0  0  0  0
  -24.3696  -22.3385  -24.3201 C   0  0  0  0  0  0
  -24.2344  -23.4389  -24.8135 O   0  0  0  0  0  0
  -27.5371  -23.1495  -23.2402 C   0  0  0  0  0  0
  -27.9686  -23.0533  -24.4134 O   0  5  0  0  0  0
  -27.8345  -24.0435  -22.4137 O   0  0  0  0  0  0
  -21.9465  -21.1183  -25.8309 O   0  0  0  0  0  0
  -23.1690  -18.3501  -24.4122 H   0  0  0  0  0  0
  -22.0787  -18.4621  -25.7821 H   0  0  0  0  0  0
  -21.5669  -19.0476  -24.1978 H   0  0  0  0  0  0
  -23.7859  -20.2493  -25.9387 H   0  0  0  0  0  0
  -22.6752  -21.3581  -23.2781 H   0  0  0  0  0  0
  -25.1147  -19.6669  -23.6209 H   0  0  0  0  0  0
  -24.1324  -21.2431  -21.1824 H   0  0  0  0  0  0
  -25.0871  -19.7596  -21.2029 H   0  0  0  0  0  0
  -27.8220  -20.2734  -18.4732 H   0  0  0  0  0  0
  -26.1916  -19.9508  -19.0104 H   0  0  0  0  0  0
  -27.4126  -18.1065  -19.8774 H   0  0  0  0  0  0
  -27.2707  -19.1317  -21.2786 H   0  0  0  0  0  0
  -29.2031  -17.5496  -21.8561 H   0  0  0  0  0  0
  -31.6759  -18.6134  -20.5733 H   0  0  0  0  0  0
  -31.5594  -17.2926  -21.7367 H   0  0  0  0  0  0
  -21.6945  -20.6794  -26.6304 H   0  0  0  0  0  0
  -29.7361  -19.5484  -19.6981 H   0  0  0  0  0  0
  1  2  1  0  0  0
  1 21  1  0  0  0
  1 22  1  0  0  0
  1 23  1  0  0  0
  2  3  1  0  0  0
  2 20  1  0  0  0
  2 24  1  0  0  0
  3 15  1  0  0  0
  3  4  1  0  0  0
  3 25  1  0  0  0
  4 14  1  0  0  0
  4  5  1  0  0  0
  4 26  1  0  0  0
  5  6  1  0  0  0
  5 27  1  0  0  0
  5 28  1  0  0  0
  6  7  1  0  0  0
  6 13  2  0  0  0
  7  8  1  0  0  0
  8  9  1  0  0  0
  8 29  1  0  0  0
  8 30  1  0  0  0
  9 10  1  0  0  0
  9 31  1  0  0  0
  9 32  1  0  0  0
 10 11  2  3  0  0
 10 37  1  0  0  0
 11 12  1  0  0  0
 11 33  1  0  0  0
 12 34  1  0  0  0
 12 35  1  0  0  0
 13 14  1  0  0  0
 13 17  1  0  0  0
 14 15  1  0  0  0
 15 16  2  0  0  0
 17 18  1  0  0  0
 17 19  2  0  0  0
 20 36  1  0  0  0
M  CHG  2  10   1  18  -1
M  END
> <s_m_entry_id>
27443

> <s_m_entry_name>
data_maestro.12

> <s_m_Source_Path>
C:\Users\olshana1\Git\GramNeg-Accumulation\Gram Negative Permeation - OmpF

> <s_m_Source_File>
data_maestro.csv

> <i_m_Source_File_Index>
12

> <s_m_job_name>
glide-dock_Nicaido_neutral

> <s_i_glide_gridfile>
3POX-grid

> <i_i_glide_lignum>
16

> <i_i_glide_rotatable_bonds>
7

> <r_i_docking_score>
-4.99149079059585

> <r_i_glide_ligand_efficiency>
-0.249574539529793

> <r_i_glide_ligand_efficiency_sa>
-0.677449526076745

> <r_i_glide_ligand_efficiency_ln>
-1.24920551450165

> <r_i_glide_gscore>
-4.99149079059585

> <r_i_glide_lipo>
0

> <r_i_glide_hbond>
-0.582361081481499

> <r_i_glide_metal>
0

> <r_i_glide_rewards>
-1.36808809090909

> <r_i_glide_evdw>
-13.8770046234131

> <r_i_glide_ecoul>
-19.5140953063965

> <r_i_glide_erotb>
1.02473259195513

> <r_i_glide_esite>
-0.444809683030262

> <r_i_glide_emodel>
-61.6932322785135

> <r_i_glide_energy>
-33.3910999298096

> <r_i_glide_einternal>
4.00230741500854

> <i_i_glide_confnum>
250

> <i_i_glide_posenum>
230

> <r_i_glide_eff_state_penalty>
0

> <r_glide_res:A132_vdw>
-1.38204218938205

> <r_glide_res:A132_coul>
-21.2422698549854

> <r_glide_res:A132_hbond>
0

> <r_glide_res:A132_dist>
2.5620952430787

> <r_glide_res:A132_Eint>
-22.6243120443674

> <r_glide_res:A117_vdw>
-2.57155500332379

> <r_glide_res:A117_coul>
-8.34878214414694

> <r_glide_res:A117_hbond>
0

> <r_glide_res:A117_dist>
2.21237170416539

> <r_glide_res:A117_Eint>
-10.9203371474707

> <r_glide_res:A113_vdw>
2.07410124881233

> <r_glide_res:A113_coul>
-26.899236846731

> <r_glide_res:A113_hbond>
-0.213326530315838

> <r_glide_res:A113_dist>
1.58666848279076

> <r_glide_res:A113_Eint>
-25.0384621282345

> <r_glide_res:A82_vdw>
0.350584723179361

> <r_glide_res:A82_coul>
-33.6085551546296

> <r_glide_res:A82_hbond>
-0.206751357603877

> <r_glide_res:A82_dist>
1.84826849199591

> <r_glide_res:A82_Eint>
-33.4647217890541

> <r_glide_res:A42_vdw>
-1.08231723899807

> <r_glide_res:A42_coul>
-29.9954489727732

> <r_glide_res:A42_hbond>
-0.162283193561785

> <r_glide_res:A42_dist>
2.06967445816529

> <r_glide_res:A42_Eint>
-31.240049405333

> <r_glide_res:A16_vdw>
-0.164181304401083

> <r_glide_res:A16_coul>
-7.03680819685785

> <r_glide_res:A16_hbond>
0

> <r_glide_res:A16_dist>
4.76637902911563

> <r_glide_res:A16_Eint>
-7.20098950125893

> <s_m_source_file>
ligprep_Nicaido_neutral.maegz

> <i_m_source_file_index>
12

> <i_lp_mmshare_version>
58128

> <i_f3d_flags>
0

> <s_lp_Force_Field>
S-OPLS

> <r_lp_Energy>
18.714001

> <b_lp_Chiralities_Consistent>
1

> <s_lp_Variant>
Imipenem-1

> <s_epik_input>
W0NIM11bQ0BASF0oW09IXSlbQ0BASF0xQyg9TylOKFtDQEhdMTIpQyhDKD1PKVtPSF0pPUMoW0NIMl0yKVNbQ0gyXVtDSDJdL049W0NIXS9bTkgyXQ==

> <s_epik_cmdline>
J2VwaWtfcHl0aG9uJywgJy1waHQnLCAnMC4wJywgJy1waCcsICc3LjQnLCAnLW50JywgJy1tYScsICc1MDAnLCAnLWltYWUnLCAnPGluZmlsZS5tYWU+JywgJy1vbWFlJywgJzxvdXRmaWxlLm1hZT4n

> <r_lp_tautomer_probability>
1

> <r_epik_Ionization_Penalty>
  0.0001

> <r_epik_Ionization_Penalty_Charging>
  0.0001

> <r_epik_Ionization_Penalty_Neutral>
  0.0000

> <r_epik_State_Penalty>
  0.0000

> <r_epik_Charging_Adjusted_Penalty>
9.5675940864495e-05

> <i_epik_Tot_Q>
0

> <i_epik_Tot_abs_Q>
2

> <s_epik_Chemistry_Notes>
This compound has an imine and may undergo hydrolysis.

> <s_m_subgroup_title>
glide-dock_Nicaido_neutral_pv1

> <s_m_subgroupid>
glide-dock_Nicaido_neutral_pv1

> <b_m_subgroup_collapsed>
0

$$$$
LY097964
                    3D
 Schrodinger Suite 2022-2.
 40 42  0  0  1  0            999 V2000
  -33.0248  -16.4280  -26.6964 C   0  0  0  0  0  0
  -32.5403  -17.2542  -25.6538 O   0  0  0  0  0  0
  -31.3006  -17.7808  -26.0515 N   0  0  0  0  0  0
  -30.6988  -18.3848  -25.1044 C   0  0  0  0  0  0
  -31.2655  -18.5898  -23.7511 C   0  0  0  0  0  0
  -30.7658  -17.9496  -22.6440 C   0  0  0  0  0  0
  -31.6596  -18.3496  -21.2134 S   0  0  0  0  0  0
  -32.6729  -19.4036  -22.1743 C   0  0  0  0  0  0
  -33.7181  -20.1103  -21.6134 N   0  0  0  0  0  0
  -32.3457  -19.4352  -23.4640 N   0  0  0  0  0  0
  -29.3787  -19.0723  -25.3520 C   0  0  0  0  0  0
  -28.4955  -19.0445  -24.3374 N   0  0  0  0  0  0
  -27.1986  -19.7194  -24.3641 C   0  0  1  0  0  0
  -26.5564  -19.8451  -22.9667 C   0  0  1  0  0  0
  -26.3423  -21.2491  -23.2993 N   0  0  0  0  0  0
  -27.3194  -21.2592  -24.2817 C   0  0  0  0  0  0
  -27.9689  -22.1364  -24.8134 O   0  0  0  0  0  0
  -25.6784  -22.0882  -22.3837 C   0  0  0  0  0  0
  -26.3898  -23.4398  -21.9781 C   0  0  0  0  0  0
  -26.1014  -23.9496  -20.8728 O   0  5  0  0  0  0
  -27.1689  -23.9496  -22.8116 O   0  0  0  0  0  0
  -24.4427  -21.7035  -21.9675 C   0  0  0  0  0  0
  -23.8148  -20.4157  -22.4833 C   0  0  0  0  0  0
  -24.9733  -19.0245  -22.5251 S   0  0  0  0  0  0
  -23.5052  -22.5014  -21.0692 C   0  0  0  0  0  0
  -29.1689  -19.6524  -26.4134 O   0  0  0  0  0  0
  -34.0055  -16.0395  -26.4227 H   0  0  0  0  0  0
  -32.3689  -15.5736  -26.8661 H   0  0  0  0  0  0
  -33.1313  -16.9823  -27.6300 H   0  0  0  0  0  0
  -29.9689  -17.2244  -22.5752 H   0  0  0  0  0  0
  -34.3806  -20.6100  -22.1851 H   0  0  0  0  0  0
  -33.9690  -19.9581  -20.6388 H   0  0  0  0  0  0
  -28.7184  -18.5255  -23.4991 H   0  0  0  0  0  0
  -26.5079  -19.3368  -25.1185 H   0  0  0  0  0  0
  -27.2749  -19.7464  -22.1478 H   0  0  0  0  0  0
  -22.9701  -20.1195  -21.8608 H   0  0  0  0  0  0
  -23.4280  -20.5917  -23.4872 H   0  0  0  0  0  0
  -23.5321  -22.1004  -20.0558 H   0  0  0  0  0  0
  -23.7318  -23.5638  -21.0293 H   0  0  0  0  0  0
  -22.4812  -22.4236  -21.4350 H   0  0  0  0  0  0
  1  2  1  0  0  0
  1 27  1  0  0  0
  1 28  1  0  0  0
  1 29  1  0  0  0
  2  3  1  0  0  0
  3  4  2  3  0  0
  4  5  1  0  0  0
  4 11  1  0  0  0
  5 10  1  0  0  0
  5  6  2  0  0  0
  6  7  1  0  0  0
  6 30  1  0  0  0
  7  8  1  0  0  0
  8  9  1  0  0  0
  8 10  2  0  0  0
  9 31  1  0  0  0
  9 32  1  0  0  0
 11 12  1  0  0  0
 11 26  2  0  0  0
 12 13  1  0  0  0
 12 33  1  0  0  0
 13 16  1  0  0  0
 13 14  1  0  0  0
 13 34  1  0  0  0
 14 24  1  0  0  0
 14 15  1  0  0  0
 14 35  1  0  0  0
 15 16  1  0  0  0
 15 18  1  0  0  0
 16 17  2  0  0  0
 18 19  1  0  0  0
 18 22  2  0  0  0
 19 20  1  0  0  0
 19 21  2  0  0  0
 22 23  1  0  0  0
 22 25  1  0  0  0
 23 24  1  0  0  0
 23 36  1  0  0  0
 23 37  1  0  0  0
 25 38  1  0  0  0
 25 39  1  0  0  0
 25 40  1  0  0  0
M  CHG  1  20  -1
M  END
> <s_m_entry_id>
27444

> <s_m_entry_name>
data_maestro.7

> <s_m_Source_Path>
C:\Users\olshana1\Git\GramNeg-Accumulation\Gram Negative Permeation - OmpF

> <s_m_Source_File>
data_maestro.csv

> <i_m_Source_File_Index>
7

> <s_m_job_name>
glide-dock_Nicaido_neutral

> <s_i_glide_gridfile>
3POX-grid

> <i_i_glide_lignum>
9

> <i_i_glide_rotatable_bonds>
6

> <r_i_docking_score>
-4.99035380854882

> <r_i_glide_ligand_efficiency>
-0.191936684944186

> <r_i_glide_ligand_efficiency_sa>
-0.568611673912763

> <r_i_glide_ligand_efficiency_ln>
-1.17196821725127

> <r_i_glide_gscore>
-4.99035380854882

> <r_i_glide_lipo>
0

> <r_i_glide_hbond>
-0.865314717099584

> <r_i_glide_metal>
0

> <r_i_glide_rewards>
-0.704247104275089

> <r_i_glide_evdw>
-26.0375728607178

> <r_i_glide_ecoul>
-14.2755241394043

> <r_i_glide_erotb>
0.622478626066327

> <r_i_glide_esite>
-0.600063349293944

> <r_i_glide_emodel>
-62.9682914058139

> <r_i_glide_energy>
-40.3130970001221

> <r_i_glide_einternal>
4.81412506103516

> <i_i_glide_confnum>
83

> <i_i_glide_posenum>
123

> <r_i_glide_eff_state_penalty>
0

> <r_glide_res:A132_vdw>
-0.0283581815436592

> <r_glide_res:A132_coul>
-46.7106209186616

> <r_glide_res:A132_hbond>
-0.2

> <r_glide_res:A132_dist>
1.77996660021927

> <r_glide_res:A132_Eint>
-46.9389791002053

> <r_glide_res:A117_vdw>
-6.94952752312417

> <r_glide_res:A117_coul>
17.5930544046491

> <r_glide_res:A117_hbond>
-0.00794225145968156

> <r_glide_res:A117_dist>
2.47889005347295

> <r_glide_res:A117_Eint>
10.6355846300652

> <r_glide_res:A113_vdw>
-1.78673766875457

> <r_glide_res:A113_coul>
20.894709415832

> <r_glide_res:A113_hbond>
-0.32

> <r_glide_res:A113_dist>
1.92242566982548

> <r_glide_res:A113_Eint>
18.7879717470774

> <r_glide_res:A82_vdw>
3.81437954785974

> <r_glide_res:A82_coul>
-50.0943327427507

> <r_glide_res:A82_hbond>
-0.177372465639903

> <r_glide_res:A82_dist>
1.55474493127981

> <r_glide_res:A82_Eint>
-46.4573256605308

> <r_glide_res:A42_vdw>
-1.32621075592875

> <r_glide_res:A42_coul>
-38.1541250325325

> <r_glide_res:A42_hbond>
-0.16

> <r_glide_res:A42_dist>
1.9523226541832

> <r_glide_res:A42_Eint>
-39.6403357884612

> <r_glide_res:A16_vdw>
-1.10336435511069

> <r_glide_res:A16_coul>
-29.9753043527077

> <r_glide_res:A16_hbond>
0

> <r_glide_res:A16_dist>
2.53950505504446

> <r_glide_res:A16_Eint>
-31.0786687078184

> <s_m_source_file>
ligprep_Nicaido_neutral.maegz

> <i_m_source_file_index>
7

> <i_lp_mmshare_version>
58128

> <i_f3d_flags>
0

> <s_lp_Force_Field>
S-OPLS

> <r_lp_Energy>
53.750759

> <b_lp_Chiralities_Consistent>
1

> <s_lp_Variant>
LY097964-1

> <s_epik_input>
W05IMl1jKG4xKXNbY0hdYzEvQyg9TlxPW0NIM10pQyg9TylbTkhdW0NAQEhdMkMoPU8pTihbQ0BIXTIzKUMoQyg9TylbT0hdKT1DKFtDSDJdUzMpW0NIM10=

> <s_epik_cmdline>
J2VwaWtfcHl0aG9uJywgJy1waHQnLCAnMC4wJywgJy1waCcsICc3LjQnLCAnLW50JywgJy1tYScsICc1MDAnLCAnLWltYWUnLCAnPGluZmlsZS5tYWU+JywgJy1vbWFlJywgJzxvdXRmaWxlLm1hZT4n

> <r_lp_tautomer_probability>
1

> <r_epik_Ionization_Penalty>
  0.0005

> <r_epik_Ionization_Penalty_Charging>
  0.0000

> <r_epik_Ionization_Penalty_Neutral>
  0.0005

> <r_epik_State_Penalty>
  0.0000

> <r_epik_Charging_Adjusted_Penalty>
1.64985111359435e-05

> <i_epik_Tot_Q>
-1

> <i_epik_Tot_abs_Q>
1

> <s_epik_Chemistry_Notes>
This compound has an imine and may undergo hydrolysis. This compound contains an acetal/aminal-like group ( X-CH(R)-Y where X, Y are N, S, or O) that may be acid/base labile, releasing an aldehyde.

> <s_m_subgroup_title>
glide-dock_Nicaido_neutral_pv1

> <s_m_subgroupid>
glide-dock_Nicaido_neutral_pv1

> <b_m_subgroup_collapsed>
0

$$$$
Aztreonam
                    3D
 Schrodinger Suite 2022-2.
 43 44  0  0  1  0            999 V2000
  -20.5094  -23.9875  -21.5208 C   0  0  0  0  0  0
  -21.4196  -24.6215  -20.4604 C   0  0  1  0  0  0
  -22.9547  -24.7865  -20.6216 C   0  0  2  0  0  0
  -22.6297  -26.2390  -21.0319 C   0  0  0  0  0  0
  -21.3834  -26.0813  -20.4795 N   0  0  0  0  0  0
  -19.9954  -26.9840  -20.4141 S   0  0  0  0  0  0
  -19.4455  -26.9173  -21.7770 O   0  0  0  0  0  0
  -20.4835  -28.3112  -20.0157 O   0  5  0  0  0  0
  -19.1688  -26.3496  -19.3741 O   0  0  0  0  0  0
  -23.1691  -27.1539  -21.6179 O   0  0  0  0  0  0
  -23.6008  -23.9484  -21.6446 N   0  0  0  0  0  0
  -23.5075  -23.9928  -22.9901 C   0  0  0  0  0  0
  -24.4572  -23.0279  -23.6569 C   0  0  0  0  0  0
  -23.8815  -22.2872  -24.8112 C   0  0  0  0  0  0
  -23.3393  -22.9157  -25.9107 C   0  0  0  0  0  0
  -22.7690  -21.7765  -27.0943 S   0  0  0  0  0  0
  -23.3042  -20.4745  -26.0510 C   0  0  0  0  0  0
  -23.1688  -19.1500  -26.4112 N   0  0  0  0  0  0
  -23.8521  -20.8917  -24.9145 N   0  0  0  0  0  0
  -25.6387  -22.8653  -23.2099 N   0  0  0  0  0  0
  -26.3900  -21.9458  -23.9715 O   0  0  0  0  0  0
  -27.7114  -21.7739  -23.4380 C   0  0  0  0  0  0
  -28.5608  -23.0438  -23.7031 C   0  0  0  0  0  0
  -29.1362  -23.1495  -24.8132 O   0  5  0  0  0  0
  -28.5491  -23.9500  -22.8361 O   0  0  0  0  0  0
  -27.6941  -21.4141  -21.9299 C   0  0  0  0  0  0
  -28.2818  -20.5813  -24.2336 C   0  0  0  0  0  0
  -22.7713  -24.7493  -23.6292 O   0  0  0  0  0  0
  -20.7591  -22.9394  -21.6804 H   0  0  0  0  0  0
  -19.4650  -24.0223  -21.2086 H   0  0  0  0  0  0
  -20.5626  -24.4955  -22.4816 H   0  0  0  0  0  0
  -21.1794  -24.2602  -19.4591 H   0  0  0  0  0  0
  -23.4634  -24.7176  -19.6583 H   0  0  0  0  0  0
  -24.2396  -23.2501  -21.2872 H   0  0  0  0  0  0
  -23.2255  -23.9716  -26.1004 H   0  0  0  0  0  0
  -23.7216  -18.4403  -25.9278 H   0  0  0  0  0  0
  -22.8890  -18.9101  -27.3496 H   0  0  0  0  0  0
  -28.6965  -21.1697  -21.5742 H   0  0  0  0  0  0
  -27.3234  -22.2251  -21.3025 H   0  0  0  0  0  0
  -27.0628  -20.5446  -21.7444 H   0  0  0  0  0  0
  -29.3203  -20.3826  -23.9678 H   0  0  0  0  0  0
  -27.7140  -19.6726  -24.0305 H   0  0  0  0  0  0
  -28.2371  -20.7517  -25.3097 H   0  0  0  0  0  0
  1  2  1  0  0  0
  1 29  1  0  0  0
  1 30  1  0  0  0
  1 31  1  0  0  0
  2  5  1  0  0  0
  2  3  1  0  0  0
  2 32  1  0  0  0
  3  4  1  0  0  0
  3 11  1  0  0  0
  3 33  1  0  0  0
  4  5  1  0  0  0
  4 10  2  0  0  0
  5  6  1  0  0  0
  6  7  2  0  0  0
  6  8  1  0  0  0
  6  9  2  0  0  0
 11 12  1  0  0  0
 11 34  1  0  0  0
 12 13  1  0  0  0
 12 28  2  0  0  0
 13 14  1  0  0  0
 13 20  2  3  0  0
 14 19  1  0  0  0
 14 15  2  0  0  0
 15 16  1  0  0  0
 15 35  1  0  0  0
 16 17  1  0  0  0
 17 18  1  0  0  0
 17 19  2  0  0  0
 18 36  1  0  0  0
 18 37  1  0  0  0
 20 21  1  0  0  0
 21 22  1  0  0  0
 22 23  1  0  0  0
 22 26  1  0  0  0
 22 27  1  0  0  0
 23 24  1  0  0  0
 23 25  2  0  0  0
 26 38  1  0  0  0
 26 39  1  0  0  0
 26 40  1  0  0  0
 27 41  1  0  0  0
 27 42  1  0  0  0
 27 43  1  0  0  0
M  CHG  2   8  -1  24  -1
M  END
> <s_m_entry_id>
27445

> <s_m_entry_name>
data_maestro.21

> <s_m_Source_Path>
C:\Users\olshana1\Git\GramNeg-Accumulation\Gram Negative Permeation - OmpF

> <s_m_Source_File>
data_maestro.csv

> <i_m_Source_File_Index>
21

> <s_m_job_name>
glide-dock_Nicaido_neutral

> <s_i_glide_gridfile>
3POX-grid

> <i_i_glide_lignum>
26

> <i_i_glide_rotatable_bonds>
8

> <r_i_docking_score>
-4.99029745190853

> <r_i_glide_ligand_efficiency>
-0.178224908996733

> <r_i_glide_ligand_efficiency_sa>
-0.541195792571899

> <r_i_glide_ligand_efficiency_ln>
-1.15190717340043

> <r_i_glide_gscore>
-4.99029745190853

> <r_i_glide_lipo>
-0.0261159767898801

> <r_i_glide_hbond>
-1.12386721513691

> <r_i_glide_metal>
0

> <r_i_glide_rewards>
-0.453864857202053

> <r_i_glide_evdw>
-23.1261692047119

> <r_i_glide_ecoul>
-14.402325630188

> <r_i_glide_erotb>
0.635830109179744

> <r_i_glide_esite>
-0.705622207195641

> <r_i_glide_emodel>
-62.4081127640289

> <r_i_glide_energy>
-37.5284948348999

> <r_i_glide_einternal>
11.4710168838501

> <i_i_glide_confnum>
50

> <i_i_glide_posenum>
326

> <r_i_glide_eff_state_penalty>
0

> <r_glide_res:A132_vdw>
-1.8873962057152

> <r_glide_res:A132_coul>
-56.7758140176519

> <r_glide_res:A132_hbond>
-0.154190553041086

> <r_glide_res:A132_dist>
1.99884843821227

> <r_glide_res:A132_Eint>
-58.8174007764082

> <r_glide_res:A117_vdw>
-1.34379543484438

> <r_glide_res:A117_coul>
31.5889242109004

> <r_glide_res:A117_hbond>
-0.16

> <r_glide_res:A117_dist>
1.94595619555448

> <r_glide_res:A117_Eint>
30.0851287760561

> <r_glide_res:A113_vdw>
-0.408013996674906

> <r_glide_res:A113_coul>
36.776630434267

> <r_glide_res:A113_hbond>
0

> <r_glide_res:A113_dist>
3.86984129516293

> <r_glide_res:A113_Eint>
36.3686164375921

> <r_glide_res:A82_vdw>
-1.70301475611876

> <r_glide_res:A82_coul>
-68.7007088398359

> <r_glide_res:A82_hbond>
-0.335818924330932

> <r_glide_res:A82_dist>
2.05454188779845

> <r_glide_res:A82_Eint>
-70.7395425202856

> <r_glide_res:A42_vdw>
-1.7385796938947

> <r_glide_res:A42_coul>
-62.9417754796463

> <r_glide_res:A42_hbond>
-0.2

> <r_glide_res:A42_dist>
1.83465445602517

> <r_glide_res:A42_Eint>
-64.880355173541

> <r_glide_res:A16_vdw>
-0.344470549685748

> <r_glide_res:A16_coul>
-39.3899373982128

> <r_glide_res:A16_hbond>
0

> <r_glide_res:A16_dist>
3.50539640538523

> <r_glide_res:A16_Eint>
-39.7344079478985

> <s_m_source_file>
ligprep_Nicaido_neutral.maegz

> <i_m_source_file_index>
21

> <i_lp_mmshare_version>
58128

> <i_f3d_flags>
0

> <s_lp_Force_Field>
S-OPLS

> <r_lp_Energy>
55.612973

> <b_lp_Chiralities_Consistent>
1

> <s_lp_Variant>
Aztreonam-1

> <s_epik_input>
Tz1TKD1PKShbT0hdKU4xQyg9TylbQ0BASF0oW0NAQEhdMVtDSDNdKVtOSF1DKD1PKS9DKGMyW2NIXXNjKG4yKVtOSDJdKT1OL09DKFtDSDNdKShbQ0gzXSlDKD1PKVtPSF0=

> <s_epik_cmdline>
J2VwaWtfcHl0aG9uJywgJy1waHQnLCAnMC4wJywgJy1waCcsICc3LjQnLCAnLW50JywgJy1tYScsICc1MDAnLCAnLWltYWUnLCAnPGluZmlsZS5tYWU+JywgJy1vbWFlJywgJzxvdXRmaWxlLm1hZT4n

> <r_lp_tautomer_probability>
1

> <r_epik_Ionization_Penalty>
  0.0004

> <r_epik_Ionization_Penalty_Charging>
  0.0000

> <r_epik_Ionization_Penalty_Neutral>
  0.0004

> <r_epik_State_Penalty>
  0.0000

> <r_epik_Charging_Adjusted_Penalty>
4.45674509427693e-05

> <i_epik_Tot_Q>
-2

> <i_epik_Tot_abs_Q>
2

> <s_epik_Chemistry_Notes>
This compound has an imine and may undergo hydrolysis.

> <s_m_subgroup_title>
glide-dock_Nicaido_neutral_pv1

> <s_m_subgroupid>
glide-dock_Nicaido_neutral_pv1

> <b_m_subgroup_collapsed>
0

$$$$
Cephalothin
                    3D
 Schrodinger Suite 2022-2.
 41 43  0  0  1  0            999 V2000
  -25.5708  -23.0909  -17.4005 C   0  0  0  0  0  0
  -26.5870  -23.4059  -18.4892 C   0  0  0  0  0  0
  -27.6153  -22.5443  -18.4863 O   0  0  0  0  0  0
  -28.5597  -22.5420  -19.5484 C   0  0  0  0  0  0
  -28.0912  -21.6611  -20.6923 C   0  0  0  0  0  0
  -27.9515  -22.0857  -21.9643 C   0  0  0  0  0  0
  -27.5234  -21.1779  -22.9322 N   0  0  0  0  0  0
  -26.2962  -20.4245  -22.7044 C   0  0  1  0  0  0
  -26.6164  -19.7538  -24.0600 C   0  0  2  0  0  0
  -27.4586  -21.0386  -24.3002 C   0  0  0  0  0  0
  -27.8609  -21.7273  -25.2144 O   0  0  0  0  0  0
  -25.4346  -19.5495  -24.9127 N   0  0  0  0  0  0
  -24.5658  -20.4425  -25.4145 C   0  0  0  0  0  0
  -23.3846  -19.8643  -26.1962 C   0  0  0  0  0  0
  -22.0809  -20.2440  -25.5705 C   0  0  0  0  0  0
  -21.1484  -21.1282  -26.0508 C   0  0  0  0  0  0
  -20.0121  -21.2625  -25.2006 C   0  0  0  0  0  0
  -20.0937  -20.4798  -24.0787 C   0  0  0  0  0  0
  -21.5671  -19.5496  -24.0522 S   0  0  0  0  0  0
  -24.6691  -21.6619  -25.2708 O   0  0  0  0  0  0
  -26.3412  -19.5493  -21.0864 S   0  0  0  0  0  0
  -27.8716  -20.1950  -20.3441 C   0  0  0  0  0  0
  -28.1820  -23.5497  -22.4176 C   0  0  0  0  0  0
  -27.1690  -24.2847  -22.4131 O   0  5  0  0  0  0
  -29.3199  -23.8847  -22.8131 O   0  0  0  0  0  0
  -26.4251  -24.3492  -19.2678 O   0  0  0  0  0  0
  -26.0750  -22.7492  -16.4957 H   0  0  0  0  0  0
  -24.9849  -23.9760  -17.1581 H   0  0  0  0  0  0
  -24.8948  -22.3052  -17.7354 H   0  0  0  0  0  0
  -29.5020  -22.1235  -19.2132 H   0  0  0  0  0  0
  -28.7814  -23.5590  -19.8704 H   0  0  0  0  0  0
  -25.4304  -21.0915  -22.7330 H   0  0  0  0  0  0
  -27.2079  -18.8438  -23.9413 H   0  0  0  0  0  0
  -25.2140  -18.5701  -25.1056 H   0  0  0  0  0  0
  -23.4622  -18.7780  -26.2676 H   0  0  0  0  0  0
  -23.4320  -20.2469  -27.2136 H   0  0  0  0  0  0
  -21.2426  -21.6779  -26.9760 H   0  0  0  0  0  0
  -19.1872  -21.9173  -25.4405 H   0  0  0  0  0  0
  -19.3799  -20.3802  -23.2741 H   0  0  0  0  0  0
  -28.7240  -19.6172  -20.7038 H   0  0  0  0  0  0
  -27.8270  -20.0430  -19.2650 H   0  0  0  0  0  0
  1  2  1  0  0  0
  1 27  1  0  0  0
  1 28  1  0  0  0
  1 29  1  0  0  0
  2  3  1  0  0  0
  2 26  2  0  0  0
  3  4  1  0  0  0
  4  5  1  0  0  0
  4 30  1  0  0  0
  4 31  1  0  0  0
  5 22  1  0  0  0
  5  6  2  0  0  0
  6  7  1  0  0  0
  6 23  1  0  0  0
  7 10  1  0  0  0
  7  8  1  0  0  0
  8  9  1  0  0  0
  8 21  1  0  0  0
  8 32  1  0  0  0
  9 10  1  0  0  0
  9 12  1  0  0  0
  9 33  1  0  0  0
 10 11  2  0  0  0
 12 13  1  0  0  0
 12 34  1  0  0  0
 13 14  1  0  0  0
 13 20  2  0  0  0
 14 15  1  0  0  0
 14 35  1  0  0  0
 14 36  1  0  0  0
 15 19  1  0  0  0
 15 16  2  0  0  0
 16 17  1  0  0  0
 16 37  1  0  0  0
 17 18  2  0  0  0
 17 38  1  0  0  0
 18 19  1  0  0  0
 18 39  1  0  0  0
 21 22  1  0  0  0
 22 40  1  0  0  0
 22 41  1  0  0  0
 23 24  1  0  0  0
 23 25  2  0  0  0
M  CHG  1  24  -1
M  END
> <s_m_entry_id>
27446

> <s_m_entry_name>
data_maestro.33

> <s_m_Source_Path>
C:\Users\olshana1\Git\GramNeg-Accumulation\Gram Negative Permeation - OmpF

> <s_m_Source_File>
data_maestro.csv

> <i_m_Source_File_Index>
33

> <s_m_job_name>
glide-dock_Nicaido_neutral

> <s_i_glide_gridfile>
3POX-grid

> <i_i_glide_lignum>
42

> <i_i_glide_rotatable_bonds>
8

> <r_i_docking_score>
-4.98549086516221

> <r_i_glide_ligand_efficiency>
-0.191749648660085

> <r_i_glide_ligand_efficiency_sa>
-0.568057579657068

> <r_i_glide_ligand_efficiency_ln>
-1.17082617095354

> <r_i_glide_gscore>
-4.98549086516221

> <r_i_glide_lipo>
-0.121627608086686

> <r_i_glide_hbond>
-0.816523009388118

> <r_i_glide_metal>
0

> <r_i_glide_rewards>
-0.710357405854021

> <r_i_glide_evdw>
-25.9523010253906

> <r_i_glide_ecoul>
-14.3840379714966

> <r_i_glide_erotb>
0.625287901339008

> <r_i_glide_esite>
-0.507049996178372

> <r_i_glide_emodel>
-62.8927450633171

> <r_i_glide_energy>
-40.3363389968872

> <r_i_glide_einternal>
7.25227785110474

> <i_i_glide_confnum>
74

> <i_i_glide_posenum>
377

> <r_i_glide_eff_state_penalty>
0

> <r_glide_res:A132_vdw>
-1.91956496016905

> <r_glide_res:A132_coul>
-45.7549260959569

> <r_glide_res:A132_hbond>
-0.110086272163916

> <r_glide_res:A132_dist>
2.19251306026564

> <r_glide_res:A132_Eint>
-47.7845773282899

> <r_glide_res:A117_vdw>
-3.75052901009321

> <r_glide_res:A117_coul>
8.54793491019381

> <r_glide_res:A117_hbond>
-0.16

> <r_glide_res:A117_dist>
1.8605711854038

> <r_glide_res:A117_Eint>
4.63740590010059

> <r_glide_res:A113_vdw>
-1.28686797664162

> <r_glide_res:A113_coul>
21.8452176229046

> <r_glide_res:A113_hbond>
0

> <r_glide_res:A113_dist>
2.04855759970748

> <r_glide_res:A113_Eint>
20.558349646263

> <r_glide_res:A82_vdw>
3.93075303521752

> <r_glide_res:A82_coul>
-59.8351024667465

> <r_glide_res:A82_hbond>
-0.386436737224202

> <r_glide_res:A82_dist>
1.5728734744484

> <r_glide_res:A82_Eint>
-56.2907861687531

> <r_glide_res:A42_vdw>
-1.28528465119223

> <r_glide_res:A42_coul>
-43.306908225454

> <r_glide_res:A42_hbond>
-0.16

> <r_glide_res:A42_dist>
1.88376131054135

> <r_glide_res:A42_Eint>
-44.7521928766462

> <r_glide_res:A16_vdw>
-0.325932552783018

> <r_glide_res:A16_coul>
-24.3752480122155

> <r_glide_res:A16_hbond>
0

> <r_glide_res:A16_dist>
3.83070056580366

> <r_glide_res:A16_Eint>
-24.7011805649985

> <s_m_source_file>
ligprep_Nicaido_neutral.maegz

> <i_m_source_file_index>
33

> <i_lp_mmshare_version>
58128

> <i_f3d_flags>
0

> <s_lp_Force_Field>
S-OPLS

> <r_lp_Energy>
31.39315

> <b_lp_Chiralities_Consistent>
1

> <s_lp_Variant>
Cephalothin-1

> <s_epik_input>
W0NIM11DKD1PKU9bQ0gyXUMoPUMxQyg9TylbT0hdKVtDSDJdU1tDQEBIXShOMTIpW0NASF0oQzI9TylbTkhdQyg9TylbQ0gyXWMzW2NIXVtjSF1bY0hdczM=

> <s_epik_cmdline>
J2VwaWtfcHl0aG9uJywgJy1waHQnLCAnMC4wJywgJy1waCcsICc3LjQnLCAnLW50JywgJy1tYScsICc1MDAnLCAnLWltYWUnLCAnPGluZmlsZS5tYWU+JywgJy1vbWFlJywgJzxvdXRmaWxlLm1hZT4n

> <r_lp_tautomer_probability>
1

> <r_epik_Ionization_Penalty>
  0.0000

> <r_epik_Ionization_Penalty_Charging>
  0.0000

> <r_epik_Ionization_Penalty_Neutral>
  0.0000

> <r_epik_State_Penalty>
  0.0000

> <r_epik_Charging_Adjusted_Penalty>
6.16900125885048e-06

> <i_epik_Tot_Q>
-1

> <i_epik_Tot_abs_Q>
1

> <s_epik_Chemistry_Notes>
This compound has an ester and may undergo hydrolysis at high or low pH. This compound contains an acetal/aminal-like group ( X-CH(R)-Y where X, Y are N, S, or O) that may be acid/base labile, releasing an aldehyde.

> <s_m_subgroup_title>
glide-dock_Nicaido_neutral_pv1

> <s_m_subgroupid>
glide-dock_Nicaido_neutral_pv1

> <b_m_subgroup_collapsed>
0

$$$$
Cefazolin
                    3D
 Schrodinger Suite 2022-2.
 42 45  0  0  1  0            999 V2000
  -22.2611  -21.9896  -15.6445 C   0  0  0  0  0  0
  -23.2770  -22.5935  -16.5512 C   0  0  0  0  0  0
  -23.1284  -23.7885  -17.1406 N   0  0  0  0  0  0
  -24.2176  -24.1167  -17.9404 N   0  0  0  0  0  0
  -25.1425  -23.1483  -17.9477 C   0  0  0  0  0  0
  -24.7692  -21.7597  -16.9398 S   0  0  0  0  0  0
  -26.6256  -23.2128  -18.8873 S   0  0  0  0  0  0
  -26.1759  -21.9825  -20.1500 C   0  0  0  0  0  0
  -27.3879  -21.4953  -20.9392 C   0  0  0  0  0  0
  -27.7867  -22.0430  -22.1197 C   0  0  0  0  0  0
  -28.9390  -21.6201  -22.8059 N   0  0  0  0  0  0
  -29.9600  -20.7767  -22.2084 C   0  0  2  0  0  0
  -30.5957  -20.6972  -23.6120 C   0  0  2  0  0  0
  -29.6644  -21.8952  -23.9517 C   0  0  0  0  0  0
  -29.5680  -22.7476  -24.8131 O   0  0  0  0  0  0
  -30.2745  -19.4427  -24.3003 N   0  0  0  0  0  0
  -30.2822  -19.2785  -25.6302 C   0  0  0  0  0  0
  -30.0813  -17.8635  -26.1730 C   0  0  0  0  0  0
  -31.1872  -17.4905  -27.0400 N   0  0  0  0  0  0
  -32.2983  -16.7924  -26.7916 C   0  0  0  0  0  0
  -33.0773  -16.7132  -27.8600 N   0  0  0  0  0  0
  -32.3729  -17.4253  -28.8140 N   0  0  0  0  0  0
  -31.2463  -17.8806  -28.3399 N   0  0  0  0  0  0
  -30.4708  -20.2102  -26.4126 O   0  0  0  0  0  0
  -29.1502  -19.3749  -21.3917 S   0  0  0  0  0  0
  -28.1422  -20.3579  -20.2488 C   0  0  0  0  0  0
  -26.9704  -23.1496  -22.8496 C   0  0  0  0  0  0
  -26.5834  -22.9014  -24.0133 O   0  5  0  0  0  0
  -26.8556  -24.2441  -22.2526 O   0  0  0  0  0  0
  -21.5865  -22.7490  -15.2551 H   0  0  0  0  0  0
  -21.6787  -21.2434  -16.1847 H   0  0  0  0  0  0
  -22.7577  -21.5029  -14.8050 H   0  0  0  0  0  0
  -25.4131  -22.4118  -20.7979 H   0  0  0  0  0  0
  -25.6996  -21.1250  -19.6749 H   0  0  0  0  0  0
  -30.5660  -21.3418  -21.4953 H   0  0  0  0  0  0
  -31.6613  -20.9276  -23.5952 H   0  0  0  0  0  0
  -30.0504  -18.6537  -23.7079 H   0  0  0  0  0  0
  -29.1461  -17.8025  -26.7320 H   0  0  0  0  0  0
  -30.0157  -17.1496  -25.3522 H   0  0  0  0  0  0
  -32.5334  -16.3512  -25.8340 H   0  0  0  0  0  0
  -28.7690  -20.7753  -19.4613 H   0  0  0  0  0  0
  -27.4446  -19.6727  -19.7661 H   0  0  0  0  0  0
  1  2  1  0  0  0
  1 30  1  0  0  0
  1 31  1  0  0  0
  1 32  1  0  0  0
  2  6  1  0  0  0
  2  3  2  0  0  0
  3  4  1  0  0  0
  4  5  2  0  0  0
  5  6  1  0  0  0
  5  7  1  0  0  0
  7  8  1  0  0  0
  8  9  1  0  0  0
  8 33  1  0  0  0
  8 34  1  0  0  0
  9 26  1  0  0  0
  9 10  2  0  0  0
 10 11  1  0  0  0
 10 27  1  0  0  0
 11 14  1  0  0  0
 11 12  1  0  0  0
 12 13  1  0  0  0
 12 25  1  0  0  0
 12 35  1  0  0  0
 13 14  1  0  0  0
 13 16  1  0  0  0
 13 36  1  0  0  0
 14 15  2  0  0  0
 16 17  1  0  0  0
 16 37  1  0  0  0
 17 18  1  0  0  0
 17 24  2  0  0  0
 18 19  1  0  0  0
 18 38  1  0  0  0
 18 39  1  0  0  0
 19 23  1  0  0  0
 19 20  1  0  0  0
 20 21  2  0  0  0
 20 40  1  0  0  0
 21 22  1  0  0  0
 22 23  2  0  0  0
 25 26  1  0  0  0
 26 41  1  0  0  0
 26 42  1  0  0  0
 27 28  1  0  0  0
 27 29  2  0  0  0
M  CHG  1  28  -1
M  END
> <s_m_entry_id>
27447

> <s_m_entry_name>
data_maestro.2

> <s_m_Source_Path>
C:\Users\olshana1\Git\GramNeg-Accumulation\Gram Negative Permeation - OmpF

> <s_m_Source_File>
data_maestro.csv

> <i_m_Source_File_Index>
2

> <s_m_job_name>
glide-dock_Nicaido_neutral

> <s_i_glide_gridfile>
3POX-grid

> <i_i_glide_lignum>
2

> <i_i_glide_rotatable_bonds>
8

> <r_i_docking_score>
-4.98533833144575

> <r_i_glide_ligand_efficiency>
-0.171908218325715

> <r_i_glide_ligand_efficiency_sa>
-0.528156511042952

> <r_i_glide_ligand_efficiency_ln>
-1.14151606062857

> <r_i_glide_gscore>
-4.98533833144575

> <r_i_glide_lipo>
0

> <r_i_glide_hbond>
-0.643142149502486

> <r_i_glide_metal>
0

> <r_i_glide_rewards>
-0.316637544347096

> <r_i_glide_evdw>
-34.2862319946289

> <r_i_glide_ecoul>
-14.6894340515137

> <r_i_glide_erotb>
0.585623573400065

> <r_i_glide_esite>
-0.693455503537732

> <r_i_glide_emodel>
-70.6332136622226

> <r_i_glide_energy>
-48.9756660461426

> <r_i_glide_einternal>
12.2079477310181

> <i_i_glide_confnum>
39

> <i_i_glide_posenum>
370

> <r_i_glide_eff_state_penalty>
0

> <r_glide_res:A132_vdw>
-1.29191208467205

> <r_glide_res:A132_coul>
-41.6650960101268

> <r_glide_res:A132_hbond>
-0.0661203793246973

> <r_glide_res:A132_dist>
2.19176269024488

> <r_glide_res:A132_Eint>
-43.0231284741236

> <r_glide_res:A117_vdw>
-3.44803826162947

> <r_glide_res:A117_coul>
19.2936838754872

> <r_glide_res:A117_hbond>
0

> <r_glide_res:A117_dist>
2.23916379770042

> <r_glide_res:A117_Eint>
15.8456456138578

> <r_glide_res:A113_vdw>
-2.55377995417411

> <r_glide_res:A113_coul>
17.5915769619739

> <r_glide_res:A113_hbond>
0

> <r_glide_res:A113_dist>
2.43662967691562

> <r_glide_res:A113_Eint>
15.0377970077998

> <r_glide_res:A82_vdw>
0.521990345609005

> <r_glide_res:A82_coul>
-48.62965014527

> <r_glide_res:A82_hbond>
-0.209078055148954

> <r_glide_res:A82_dist>
1.75727478310641

> <r_glide_res:A82_Eint>
-48.3167378548099

> <r_glide_res:A42_vdw>
-1.26197905538162

> <r_glide_res:A42_coul>
-47.364427983483

> <r_glide_res:A42_hbond>
-0.271106535978679

> <r_glide_res:A42_dist>
2.07290397978118

> <r_glide_res:A42_Eint>
-48.8975135748433

> <r_glide_res:A16_vdw>
0.257614508441291

> <r_glide_res:A16_coul>
-38.2582310306365

> <r_glide_res:A16_hbond>
-0.096837179050156

> <r_glide_res:A16_dist>
1.96186478575224

> <r_glide_res:A16_Eint>
-38.0974537012454

> <s_m_source_file>
ligprep_Nicaido_neutral.maegz

> <i_m_source_file_index>
2

> <i_lp_mmshare_version>
58128

> <i_f3d_flags>
0

> <s_lp_Force_Field>
S-OPLS

> <r_lp_Energy>
37.420105

> <b_lp_Chiralities_Consistent>
1

> <s_lp_Variant>
Cefazolin-1

> <s_epik_input>
W0NIM11jMW5uYyhzMSlTW0NIMl1DKD1DMkMoPU8pW09IXSlbQ0gyXVNbQ0BIXShOMjMpW0NASF0oQzM9TylbTkhdQyg9TylbQ0gyXW40W2NIXW5ubjQ=

> <s_epik_cmdline>
J2VwaWtfcHl0aG9uJywgJy1waHQnLCAnMC4wJywgJy1waCcsICc3LjQnLCAnLW50JywgJy1tYScsICc1MDAnLCAnLWltYWUnLCAnPGluZmlsZS5tYWU+JywgJy1vbWFlJywgJzxvdXRmaWxlLm1hZT4n

> <r_lp_tautomer_probability>
1

> <r_epik_Ionization_Penalty>
  0.0000

> <r_epik_Ionization_Penalty_Charging>
  0.0000

> <r_epik_Ionization_Penalty_Neutral>
  0.0000

> <r_epik_State_Penalty>
  0.0000

> <r_epik_Charging_Adjusted_Penalty>
8.33047029083912e-06

> <i_epik_Tot_Q>
-1

> <i_epik_Tot_abs_Q>
1

> <s_epik_Chemistry_Notes>
This compound contains an acetal/aminal-like group ( X-CH(R)-Y where X, Y are N, S, or O) that may be acid/base labile, releasing an aldehyde.

> <s_m_subgroup_title>
glide-dock_Nicaido_neutral_pv1

> <s_m_subgroupid>
glide-dock_Nicaido_neutral_pv1

> <b_m_subgroup_collapsed>
0

$$$$
Aztreonam
                    3D
 Schrodinger Suite 2022-2.
 43 44  0  0  1  0            999 V2000
  -31.0064  -23.4434  -23.2485 C   0  0  0  0  0  0
  -31.1771  -21.9989  -23.7460 C   0  0  1  0  0  0
  -29.9422  -21.0760  -23.9276 C   0  0  2  0  0  0
  -30.0428  -21.4973  -25.4195 C   0  0  0  0  0  0
  -31.3314  -21.9104  -25.1962 N   0  0  0  0  0  0
  -32.4191  -22.8182  -26.0747 S   0  0  0  0  0  0
  -31.6353  -24.0055  -26.4567 O   0  0  0  0  0  0
  -32.7689  -21.9510  -27.2131 O   0  5  0  0  0  0
  -33.5324  -23.0857  -25.1532 O   0  0  0  0  0  0
  -29.3506  -21.5467  -26.4135 O   0  0  0  0  0  0
  -28.8043  -21.5726  -23.1337 N   0  0  0  0  0  0
  -27.5891  -22.0053  -23.5342 C   0  0  0  0  0  0
  -26.7623  -22.6695  -22.4470 C   0  0  0  0  0  0
  -27.2862  -22.5656  -21.0618 C   0  0  0  0  0  0
  -27.0537  -21.4549  -20.2844 C   0  0  0  0  0  0
  -27.7741  -21.6069  -18.7052 S   0  0  0  0  0  0
  -28.3842  -23.1843  -19.1830 C   0  0  0  0  0  0
  -29.1688  -23.9497  -18.3438 N   0  0  0  0  0  0
  -28.0437  -23.5505  -20.4182 N   0  0  0  0  0  0
  -25.7038  -23.3088  -22.7492 N   0  0  0  0  0  0
  -25.1182  -23.9495  -21.6366 O   0  0  0  0  0  0
  -23.6966  -24.0712  -21.7972 C   0  0  0  0  0  0
  -23.3007  -25.0165  -22.9644 C   0  0  0  0  0  0
  -22.2677  -24.7489  -23.6134 O   0  5  0  0  0  0
  -23.9871  -26.0422  -23.1783 O   0  0  0  0  0  0
  -23.0470  -22.6723  -21.9502 C   0  0  0  0  0  0
  -23.2113  -24.7187  -20.4874 C   0  0  0  0  0  0
  -27.1696  -21.9495  -24.6909 O   0  0  0  0  0  0
  -30.7736  -23.4630  -22.1833 H   0  0  0  0  0  0
  -31.9124  -24.0326  -23.3849 H   0  0  0  0  0  0
  -30.1986  -23.9509  -23.7725 H   0  0  0  0  0  0
  -32.0011  -21.4819  -23.2522 H   0  0  0  0  0  0
  -30.1742  -20.0263  -23.7390 H   0  0  0  0  0  0
  -28.9997  -21.6484  -22.1447 H   0  0  0  0  0  0
  -26.5052  -20.5577  -20.5348 H   0  0  0  0  0  0
  -29.7515  -24.6220  -18.8134 H   0  0  0  0  0  0
  -29.7385  -23.3520  -17.7480 H   0  0  0  0  0  0
  -21.9595  -22.7254  -21.8894 H   0  0  0  0  0  0
  -23.2920  -22.2087  -22.9063 H   0  0  0  0  0  0
  -23.3850  -21.9991  -21.1625 H   0  0  0  0  0  0
  -22.1238  -24.8040  -20.4678 H   0  0  0  0  0  0
  -23.5089  -24.1214  -19.6250 H   0  0  0  0  0  0
  -23.6204  -25.7196  -20.3509 H   0  0  0  0  0  0
  1  2  1  0  0  0
  1 29  1  0  0  0
  1 30  1  0  0  0
  1 31  1  0  0  0
  2  5  1  0  0  0
  2  3  1  0  0  0
  2 32  1  0  0  0
  3  4  1  0  0  0
  3 11  1  0  0  0
  3 33  1  0  0  0
  4  5  1  0  0  0
  4 10  2  0  0  0
  5  6  1  0  0  0
  6  7  2  0  0  0
  6  8  1  0  0  0
  6  9  2  0  0  0
 11 12  1  0  0  0
 11 34  1  0  0  0
 12 13  1  0  0  0
 12 28  2  0  0  0
 13 14  1  0  0  0
 13 20  2  3  0  0
 14 19  1  0  0  0
 14 15  2  0  0  0
 15 16  1  0  0  0
 15 35  1  0  0  0
 16 17  1  0  0  0
 17 18  1  0  0  0
 17 19  2  0  0  0
 18 36  1  0  0  0
 18 37  1  0  0  0
 20 21  1  0  0  0
 21 22  1  0  0  0
 22 23  1  0  0  0
 22 26  1  0  0  0
 22 27  1  0  0  0
 23 24  1  0  0  0
 23 25  2  0  0  0
 26 38  1  0  0  0
 26 39  1  0  0  0
 26 40  1  0  0  0
 27 41  1  0  0  0
 27 42  1  0  0  0
 27 43  1  0  0  0
M  CHG  2   8  -1  24  -1
M  END
> <s_m_entry_id>
27448

> <s_m_entry_name>
data_maestro.21

> <s_m_Source_Path>
C:\Users\olshana1\Git\GramNeg-Accumulation\Gram Negative Permeation - OmpF

> <s_m_Source_File>
data_maestro.csv

> <i_m_Source_File_Index>
21

> <s_m_job_name>
glide-dock_Nicaido_neutral

> <s_i_glide_gridfile>
3POX-grid

> <i_i_glide_lignum>
26

> <i_i_glide_rotatable_bonds>
8

> <r_i_docking_score>
-4.97985791310907

> <r_i_glide_ligand_efficiency>
-0.177852068325324

> <r_i_glide_ligand_efficiency_sa>
-0.540063628702088

> <r_i_glide_ligand_efficiency_ln>
-1.14949742132734

> <r_i_glide_gscore>
-4.97985791310907

> <r_i_glide_lipo>
0

> <r_i_glide_hbond>
-0.94832504844184

> <r_i_glide_metal>
0

> <r_i_glide_rewards>
-0.293041331947816

> <r_i_glide_evdw>
-20.6340618133545

> <r_i_glide_ecoul>
-16.5165023803711

> <r_i_glide_erotb>
0.635830109179744

> <r_i_glide_esite>
-0.865143194175771

> <r_i_glide_emodel>
-63.0816225571507

> <r_i_glide_energy>
-37.1505641937256

> <r_i_glide_einternal>
8.32105159759521

> <i_i_glide_confnum>
76

> <i_i_glide_posenum>
349

> <r_i_glide_eff_state_penalty>
0

> <r_glide_res:A132_vdw>
-2.40499904922395

> <r_glide_res:A132_coul>
-59.8836602135513

> <r_glide_res:A132_hbond>
-0.137087102505691

> <r_glide_res:A132_dist>
2.09041518785866

> <r_glide_res:A132_Eint>
-62.425746365281

> <r_glide_res:A117_vdw>
-0.986784782023577

> <r_glide_res:A117_coul>
36.4755014313485

> <r_glide_res:A117_hbond>
0

> <r_glide_res:A117_dist>
4.37977748414462

> <r_glide_res:A117_Eint>
35.4887166493249

> <r_glide_res:A113_vdw>
-1.62049351882843

> <r_glide_res:A113_coul>
24.056772828039

> <r_glide_res:A113_hbond>
-0.105140293615116

> <r_glide_res:A113_dist>
2.06477154941086

> <r_glide_res:A113_Eint>
22.3311390155954

> <r_glide_res:A82_vdw>
-3.63821177975891

> <r_glide_res:A82_coul>
-64.0898079291782

> <r_glide_res:A82_hbond>
0

> <r_glide_res:A82_dist>
1.87789958604339

> <r_glide_res:A82_Eint>
-67.7280197089371

> <r_glide_res:A42_vdw>
-1.87699656213185

> <r_glide_res:A42_coul>
-71.3198411361533

> <r_glide_res:A42_hbond>
-0.234558230116421

> <r_glide_res:A42_dist>
1.83301316683026

> <r_glide_res:A42_Eint>
-73.4313959284016

> <r_glide_res:A16_vdw>
-1.03088656308772

> <r_glide_res:A16_coul>
-67.6972100859586

> <r_glide_res:A16_hbond>
-0.271539422204612

> <r_glide_res:A16_dist>
1.98676938598235

> <r_glide_res:A16_Eint>
-68.9996360712509

> <s_m_source_file>
ligprep_Nicaido_neutral.maegz

> <i_m_source_file_index>
21

> <i_lp_mmshare_version>
58128

> <i_f3d_flags>
0

> <s_lp_Force_Field>
S-OPLS

> <r_lp_Energy>
55.612973

> <b_lp_Chiralities_Consistent>
1

> <s_lp_Variant>
Aztreonam-1

> <s_epik_input>
Tz1TKD1PKShbT0hdKU4xQyg9TylbQ0BASF0oW0NAQEhdMVtDSDNdKVtOSF1DKD1PKS9DKGMyW2NIXXNjKG4yKVtOSDJdKT1OL09DKFtDSDNdKShbQ0gzXSlDKD1PKVtPSF0=

> <s_epik_cmdline>
J2VwaWtfcHl0aG9uJywgJy1waHQnLCAnMC4wJywgJy1waCcsICc3LjQnLCAnLW50JywgJy1tYScsICc1MDAnLCAnLWltYWUnLCAnPGluZmlsZS5tYWU+JywgJy1vbWFlJywgJzxvdXRmaWxlLm1hZT4n

> <r_lp_tautomer_probability>
1

> <r_epik_Ionization_Penalty>
  0.0004

> <r_epik_Ionization_Penalty_Charging>
  0.0000

> <r_epik_Ionization_Penalty_Neutral>
  0.0004

> <r_epik_State_Penalty>
  0.0000

> <r_epik_Charging_Adjusted_Penalty>
4.45674509427693e-05

> <i_epik_Tot_Q>
-2

> <i_epik_Tot_abs_Q>
2

> <s_epik_Chemistry_Notes>
This compound has an imine and may undergo hydrolysis.

> <s_m_subgroup_title>
glide-dock_Nicaido_neutral_pv1

> <s_m_subgroupid>
glide-dock_Nicaido_neutral_pv1

> <b_m_subgroup_collapsed>
0

$$$$
Cefacetrile
                    3D
 Schrodinger Suite 2022-2.
 35 36  0  0  1  0            999 V2000
  -23.8113  -20.7901  -17.2074 C   0  0  0  0  0  0
  -24.8307  -21.8292  -17.6511 C   0  0  0  0  0  0
  -25.7034  -21.3353  -18.5400 O   0  0  0  0  0  0
  -26.8112  -22.1178  -18.9628 C   0  0  0  0  0  0
  -27.4766  -21.5183  -20.2021 C   0  0  0  0  0  0
  -27.6238  -22.1607  -21.3979 C   0  0  0  0  0  0
  -28.4080  -21.6043  -22.4285 N   0  0  0  0  0  0
  -29.4745  -20.6603  -22.1528 C   0  0  2  0  0  0
  -29.8184  -20.6938  -23.6533 C   0  0  2  0  0  0
  -28.6683  -21.7234  -23.7880 C   0  0  0  0  0  0
  -28.1707  -22.3858  -24.6778 O   0  0  0  0  0  0
  -29.5608  -19.4334  -24.3491 N   0  0  0  0  0  0
  -29.6686  -19.3066  -25.6798 C   0  0  0  0  0  0
  -29.4133  -17.9270  -26.2853 C   0  0  0  0  0  0
  -29.7204  -17.9262  -27.7239 C   0  0  0  0  0  0
  -29.9693  -17.9495  -28.8554 N   0  0  0  0  0  0
  -29.9688  -20.2553  -26.4128 O   0  0  0  0  0  0
  -28.7579  -19.2313  -21.3144 S   0  0  0  0  0  0
  -28.0178  -20.1149  -19.9121 C   0  0  0  0  0  0
  -27.0581  -23.5983  -21.7014 C   0  0  0  0  0  0
  -27.7684  -24.3494  -22.4131 O   0  5  0  0  0  0
  -25.9704  -23.9457  -21.1894 O   0  0  0  0  0  0
  -24.8017  -22.9815  -17.2183 O   0  0  0  0  0  0
  -23.1878  -20.4878  -18.0480 H   0  0  0  0  0  0
  -24.3169  -19.9069  -16.8159 H   0  0  0  0  0  0
  -23.1712  -21.1946  -16.4236 H   0  0  0  0  0  0
  -27.5498  -22.1217  -18.1590 H   0  0  0  0  0  0
  -26.5236  -23.1577  -19.0978 H   0  0  0  0  0  0
  -30.2483  -21.1186  -21.5342 H   0  0  0  0  0  0
  -30.8164  -21.0972  -23.8300 H   0  0  0  0  0  0
  -29.2807  -18.6413  -23.7832 H   0  0  0  0  0  0
  -28.3692  -17.6459  -26.1510 H   0  0  0  0  0  0
  -30.0310  -17.1712  -25.7984 H   0  0  0  0  0  0
  -28.7688  -20.2037  -19.1293 H   0  0  0  0  0  0
  -27.2259  -19.4839  -19.5115 H   0  0  0  0  0  0
  1  2  1  0  0  0
  1 24  1  0  0  0
  1 25  1  0  0  0
  1 26  1  0  0  0
  2  3  1  0  0  0
  2 23  2  0  0  0
  3  4  1  0  0  0
  4  5  1  0  0  0
  4 27  1  0  0  0
  4 28  1  0  0  0
  5 19  1  0  0  0
  5  6  2  0  0  0
  6  7  1  0  0  0
  6 20  1  0  0  0
  7 10  1  0  0  0
  7  8  1  0  0  0
  8  9  1  0  0  0
  8 18  1  0  0  0
  8 29  1  0  0  0
  9 10  1  0  0  0
  9 12  1  0  0  0
  9 30  1  0  0  0
 10 11  2  0  0  0
 12 13  1  0  0  0
 12 31  1  0  0  0
 13 14  1  0  0  0
 13 17  2  0  0  0
 14 15  1  0  0  0
 14 32  1  0  0  0
 14 33  1  0  0  0
 15 16  3  0  0  0
 18 19  1  0  0  0
 19 34  1  0  0  0
 19 35  1  0  0  0
 20 21  1  0  0  0
 20 22  2  0  0  0
M  CHG  1  21  -1
M  END
> <s_m_entry_id>
27449

> <s_m_entry_name>
data_maestro.1

> <s_m_Source_Path>
C:\Users\olshana1\Git\GramNeg-Accumulation\Gram Negative Permeation - OmpF

> <s_m_Source_File>
data_maestro.csv

> <i_m_Source_File_Index>
1

> <s_m_job_name>
glide-dock_Nicaido_neutral

> <s_i_glide_gridfile>
3POX-grid

> <i_i_glide_lignum>
1

> <i_i_glide_rotatable_bonds>
7

> <r_i_docking_score>
-4.97831963404985

> <r_i_glide_ligand_efficiency>
-0.216448679741298

> <r_i_glide_ligand_efficiency_sa>
-0.615551252505391

> <r_i_glide_ligand_efficiency_ln>
-1.20380282841995

> <r_i_glide_gscore>
-4.97831963404985

> <r_i_glide_lipo>
0

> <r_i_glide_hbond>
-0.808218290793316

> <r_i_glide_metal>
0

> <r_i_glide_rewards>
-1.15132135148049

> <r_i_glide_evdw>
-24.3109283447266

> <r_i_glide_ecoul>
-13.14967918396

> <r_i_glide_erotb>
0.660867222788296

> <r_i_glide_esite>
-0.491648919734018

> <r_i_glide_emodel>
-60.7541905468407

> <r_i_glide_energy>
-37.4606075286865

> <r_i_glide_einternal>
3.85451626777649

> <i_i_glide_confnum>
32

> <i_i_glide_posenum>
85

> <r_i_glide_eff_state_penalty>
0

> <r_glide_res:A132_vdw>
0.630750856439318

> <r_glide_res:A132_coul>
-46.1029572743487

> <r_glide_res:A132_hbond>
-0.213888796460422

> <r_glide_res:A132_dist>
1.79910580151581

> <r_glide_res:A132_Eint>
-45.6860952143698

> <r_glide_res:A117_vdw>
-3.12401193484412

> <r_glide_res:A117_coul>
15.6538015466859

> <r_glide_res:A117_hbond>
0

> <r_glide_res:A117_dist>
2.3160569869973

> <r_glide_res:A117_Eint>
12.5297896118418

> <r_glide_res:A113_vdw>
-2.08015776230666

> <r_glide_res:A113_coul>
17.6827302424995

> <r_glide_res:A113_hbond>
0

> <r_glide_res:A113_dist>
2.19438110422493

> <r_glide_res:A113_Eint>
15.6025724801928

> <r_glide_res:A82_vdw>
1.99512134960795

> <r_glide_res:A82_coul>
-49.7810315299351

> <r_glide_res:A82_hbond>
-0.217179404056987

> <r_glide_res:A82_dist>
1.6386771640383

> <r_glide_res:A82_Eint>
-48.0030895843842

> <r_glide_res:A42_vdw>
-1.32156337375212

> <r_glide_res:A42_coul>
-37.6391270705857

> <r_glide_res:A42_hbond>
-0.173932472069751

> <r_glide_res:A42_dist>
2.07693600768628

> <r_glide_res:A42_Eint>
-39.1346229164076

> <r_glide_res:A16_vdw>
-0.00960483018033571

> <r_glide_res:A16_coul>
-34.6921712875147

> <r_glide_res:A16_hbond>
-0.203217618206156

> <r_glide_res:A16_dist>
1.95902919247503

> <r_glide_res:A16_Eint>
-34.9049937359012

> <s_m_source_file>
ligprep_Nicaido_neutral.maegz

> <i_m_source_file_index>
1

> <i_lp_mmshare_version>
58128

> <i_f3d_flags>
0

> <s_lp_Force_Field>
S-OPLS

> <r_lp_Energy>
24.277434

> <b_lp_Chiralities_Consistent>
1

> <s_lp_Variant>
Cefacetrile-1

> <s_epik_input>
W0NIM11DKD1PKU9bQ0gyXUMoPUMxQyg9TylbT0hdKVtDSDJdU1tDQEhdKE4xMilbQ0BIXShDMj1PKVtOSF1DKD1PKVtDSDJdQyNO

> <s_epik_cmdline>
J2VwaWtfcHl0aG9uJywgJy1waHQnLCAnMC4wJywgJy1waCcsICc3LjQnLCAnLW50JywgJy1tYScsICc1MDAnLCAnLWltYWUnLCAnPGluZmlsZS5tYWU+JywgJy1vbWFlJywgJzxvdXRmaWxlLm1hZT4n

> <r_lp_tautomer_probability>
1

> <r_epik_Ionization_Penalty>
  0.0000

> <r_epik_Ionization_Penalty_Charging>
  0.0000

> <r_epik_Ionization_Penalty_Neutral>
  0.0000

> <r_epik_State_Penalty>
  0.0000

> <r_epik_Charging_Adjusted_Penalty>
5.96156609429709e-06

> <i_epik_Tot_Q>
-1

> <i_epik_Tot_abs_Q>
1

> <s_epik_Chemistry_Notes>
This compound has an ester and may undergo hydrolysis at high or low pH. This compound contains an acetal/aminal-like group ( X-CH(R)-Y where X, Y are N, S, or O) that may be acid/base labile, releasing an aldehyde.

> <s_m_subgroup_title>
glide-dock_Nicaido_neutral_pv1

> <s_m_subgroupid>
glide-dock_Nicaido_neutral_pv1

> <b_m_subgroup_collapsed>
0

$$$$
Ofloxacin
                    3D
 Schrodinger Suite 2022-2.
 46 49  0  0  1  0            999 V2000
  -21.3888  -19.8854  -15.0202 C   0  0  0  0  0  0
  -22.4285  -20.5706  -15.9252 C   0  0  1  0  0  0
  -22.9834  -19.5611  -16.9337 C   0  0  0  0  0  0
  -24.0959  -20.1320  -17.5948 O   0  0  0  0  0  0
  -23.9400  -21.4388  -18.0014 C   0  0  0  0  0  0
  -22.8848  -22.2842  -17.5727 C   0  0  0  0  0  0
  -21.9309  -21.7569  -16.6420 N   0  0  0  0  0  0
  -20.7481  -22.4385  -16.3548 C   0  0  0  0  0  0
  -20.4606  -23.6961  -16.7493 C   0  0  0  0  0  0
  -21.4821  -24.4170  -17.5384 C   0  0  0  0  0  0
  -22.6559  -23.6204  -17.9755 C   0  0  0  0  0  0
  -23.6160  -24.1507  -18.8619 C   0  0  0  0  0  0
  -24.6991  -23.3809  -19.3202 C   0  0  0  0  0  0
  -25.5842  -23.9486  -20.1802 F   0  0  0  0  0  0
  -24.8577  -22.0376  -18.9066 C   0  0  0  0  0  0
  -25.9489  -21.3202  -19.4211 N   0  0  0  0  0  0
  -26.9256  -20.9536  -18.4064 C   0  0  0  0  0  0
  -28.1836  -20.3608  -19.0461 C   0  0  0  0  0  0
  -27.8819  -19.2743  -20.0135 N   0  3  0  0  0  0
  -26.8341  -19.6445  -20.9979 C   0  0  0  0  0  0
  -25.5851  -20.2227  -20.3113 C   0  0  0  0  0  0
  -29.1025  -18.7525  -20.6670 C   0  0  0  0  0  0
  -21.3829  -25.6132  -17.8182 O   0  0  0  0  0  0
  -19.0886  -24.3495  -16.4216 C   0  0  0  0  0  0
  -18.4899  -24.9306  -17.3553 O   0  5  0  0  0  0
  -18.7653  -24.3495  -15.2133 O   0  0  0  0  0  0
  -21.8237  -19.0195  -14.5189 H   0  0  0  0  0  0
  -21.0343  -20.5558  -14.2403 H   0  0  0  0  0  0
  -20.5275  -19.5362  -15.5910 H   0  0  0  0  0  0
  -23.2441  -20.9021  -15.2804 H   0  0  0  0  0  0
  -23.3172  -18.6528  -16.4301 H   0  0  0  0  0  0
  -22.2250  -19.2681  -17.6615 H   0  0  0  0  0  0
  -20.0166  -21.8685  -15.8026 H   0  0  0  0  0  0
  -23.5166  -25.1664  -19.2149 H   0  0  0  0  0  0
  -27.1924  -21.8249  -17.8061 H   0  0  0  0  0  0
  -26.4986  -20.2235  -17.7192 H   0  0  0  0  0  0
  -28.7689  -19.9502  -18.2323 H   0  0  0  0  0  0
  -28.7692  -21.1452  -19.5278 H   0  0  0  0  0  0
  -26.5562  -18.7693  -21.5866 H   0  0  0  0  0  0
  -27.2413  -20.3802  -21.6930 H   0  0  0  0  0  0
  -25.0854  -19.4339  -19.7481 H   0  0  0  0  0  0
  -24.8764  -20.5728  -21.0629 H   0  0  0  0  0  0
  -29.6187  -19.5360  -21.2223 H   0  0  0  0  0  0
  -29.7958  -18.3496  -19.9318 H   0  0  0  0  0  0
  -28.8612  -17.9497  -21.3597 H   0  0  0  0  0  0
  -27.5157  -18.5198  -19.4453 H   0  0  0  0  0  0
  1  2  1  0  0  0
  1 27  1  0  0  0
  1 28  1  0  0  0
  1 29  1  0  0  0
  2  7  1  0  0  0
  2  3  1  0  0  0
  2 30  1  0  0  0
  3  4  1  0  0  0
  3 31  1  0  0  0
  3 32  1  0  0  0
  4  5  1  0  0  0
  5 15  1  0  0  0
  5  6  2  0  0  0
  6 11  1  0  0  0
  6  7  1  0  0  0
  7  8  1  0  0  0
  8  9  2  0  0  0
  8 33  1  0  0  0
  9 10  1  0  0  0
  9 24  1  0  0  0
 10 11  1  0  0  0
 10 23  2  0  0  0
 11 12  2  0  0  0
 12 13  1  0  0  0
 12 34  1  0  0  0
 13 14  1  0  0  0
 13 15  2  0  0  0
 15 16  1  0  0  0
 16 21  1  0  0  0
 16 17  1  0  0  0
 17 18  1  0  0  0
 17 35  1  0  0  0
 17 36  1  0  0  0
 18 19  1  0  0  0
 18 37  1  0  0  0
 18 38  1  0  0  0
 19 20  1  0  0  0
 19 22  1  0  0  0
 19 46  1  0  0  0
 20 21  1  0  0  0
 20 39  1  0  0  0
 20 40  1  0  0  0
 21 41  1  0  0  0
 21 42  1  0  0  0
 22 43  1  0  0  0
 22 44  1  0  0  0
 22 45  1  0  0  0
 24 25  1  0  0  0
 24 26  2  0  0  0
M  CHG  2  19   1  25  -1
M  END
> <s_m_entry_id>
27450

> <s_m_entry_name>
data_maestro.32

> <s_m_Source_Path>
C:\Users\olshana1\Git\GramNeg-Accumulation\Gram Negative Permeation - OmpF

> <s_m_Source_File>
data_maestro.csv

> <i_m_Source_File_Index>
32

> <s_m_job_name>
glide-dock_Nicaido_neutral

> <s_i_glide_gridfile>
3POX-grid

> <i_i_glide_lignum>
41

> <i_i_glide_rotatable_bonds>
2

> <r_i_docking_score>
-4.97743151147138

> <r_i_glide_ligand_efficiency>
-0.19143967351813

> <r_i_glide_ligand_efficiency_sa>
-0.567139279518719

> <r_i_glide_ligand_efficiency_ln>
-1.16893345818414

> <r_i_glide_gscore>
-4.97743151147138

> <r_i_glide_lipo>
-0.0233598142631071

> <r_i_glide_hbond>
-0.2

> <r_i_glide_metal>
0

> <r_i_glide_rewards>
-1.17022157045454

> <r_i_glide_evdw>
-21.0382690429688

> <r_i_glide_ecoul>
-15.7572135925293

> <r_i_glide_erotb>
0.146950134654495

> <r_i_glide_esite>
-0.31530477038039

> <r_i_glide_emodel>
-59.9784101353102

> <r_i_glide_energy>
-36.795482635498

> <r_i_glide_einternal>
1.1585510969162

> <i_i_glide_confnum>
2

> <i_i_glide_posenum>
290

> <r_i_glide_eff_state_penalty>
0

> <r_glide_res:A132_vdw>
-0.846123449818592

> <r_glide_res:A132_coul>
-0.357536729196431

> <r_glide_res:A132_hbond>
0

> <r_glide_res:A132_dist>
1.9537223300017

> <r_glide_res:A132_Eint>
-1.20366017901502

> <r_glide_res:A117_vdw>
-1.23114326427341

> <r_glide_res:A117_coul>
-15.6064137100725

> <r_glide_res:A117_hbond>
0

> <r_glide_res:A117_dist>
2.33069481406197

> <r_glide_res:A117_Eint>
-16.8375569743459

> <r_glide_res:A113_vdw>
0.621987382280903

> <r_glide_res:A113_coul>
-29.6467799148568

> <r_glide_res:A113_hbond>
0

> <r_glide_res:A113_dist>
2.16136761552638

> <r_glide_res:A113_Eint>
-29.0247925325759

> <r_glide_res:A82_vdw>
-0.218957997653304

> <r_glide_res:A82_coul>
3.63411886947361

> <r_glide_res:A82_hbond>
0

> <r_glide_res:A82_dist>
4.03899978302108

> <r_glide_res:A82_Eint>
3.4151608718203

> <r_glide_res:A42_vdw>
-0.0883041071268915

> <r_glide_res:A42_coul>
5.33713409103656

> <r_glide_res:A42_hbond>
0

> <r_glide_res:A42_dist>
5.19070159544612

> <r_glide_res:A42_Eint>
5.24882998390967

> <r_glide_res:A16_vdw>
-0.0219227325148948

> <r_glide_res:A16_coul>
7.25452259472226

> <r_glide_res:A16_hbond>
0

> <r_glide_res:A16_dist>
7.11797616187127

> <r_glide_res:A16_Eint>
7.23259986220737

> <s_m_source_file>
ligprep_Nicaido_neutral.maegz

> <i_m_source_file_index>
32

> <i_lp_mmshare_version>
58128

> <i_f3d_flags>
0

> <s_lp_Force_Field>
S-OPLS

> <r_lp_Energy>
60.370079

> <b_lp_Chiralities_Consistent>
1

> <s_lp_Variant>
Ofloxacin-1

> <s_epik_input>
TzFbQ0gyXVtDQEhdKFtDSDNdKW4oYzJjMTMpW2NIXWMoQyg9TylbT0hdKWMoPU8pYzJbY0hdYyhGKWMzTjRbQ0gyXVtDSDJdTihbQ0gzXSlbQ0gyXVtDSDJdNA==

> <s_epik_cmdline>
J2VwaWtfcHl0aG9uJywgJy1waHQnLCAnMC4wJywgJy1waCcsICc3LjQnLCAnLW50JywgJy1tYScsICc1MDAnLCAnLWltYWUnLCAnPGluZmlsZS5tYWU+JywgJy1vbWFlJywgJzxvdXRmaWxlLm1hZT4n

> <r_lp_tautomer_probability>
1

> <r_epik_Ionization_Penalty>
  0.1907

> <r_epik_Ionization_Penalty_Charging>
  0.1907

> <r_epik_Ionization_Penalty_Neutral>
  0.0000

> <r_epik_State_Penalty>
  0.0000

> <r_epik_Charging_Adjusted_Penalty>
0.190712686691679

> <i_epik_Tot_Q>
0

> <i_epik_Tot_abs_Q>
2

> <s_m_subgroup_title>
glide-dock_Nicaido_neutral_pv1

> <s_m_subgroupid>
glide-dock_Nicaido_neutral_pv1

> <b_m_subgroup_collapsed>
0

$$$$
Cyclacillin
                    3D
 Schrodinger Suite 2022-2.
 46 48  0  0  1  0            999 V2000
  -21.6896  -23.5425  -23.0369 C   0  0  0  0  0  0
  -22.4239  -23.0193  -24.2877 C   0  0  0  0  0  0
  -23.7926  -23.7222  -24.6062 C   0  0  2  0  0  0
  -24.7852  -22.8573  -24.0134 N   0  0  0  0  0  0
  -24.6579  -21.4167  -24.0469 C   0  0  2  0  0  0
  -22.8495  -21.2641  -23.9391 S   0  0  0  0  0  0
  -25.6431  -21.3579  -22.8680 C   0  0  2  0  0  0
  -25.7547  -22.8860  -23.0357 C   0  0  0  0  0  0
  -26.3689  -23.7943  -22.5136 O   0  0  0  0  0  0
  -26.8516  -20.5736  -23.1659 N   0  0  0  0  0  0
  -27.6818  -20.6645  -24.2262 C   0  0  0  0  0  0
  -28.6790  -19.5047  -24.4265 C   0  0  0  0  0  0
  -29.6897  -19.8124  -25.5646 C   0  0  0  0  0  0
  -30.7484  -18.7056  -25.7365 C   0  0  0  0  0  0
  -31.4932  -18.4360  -24.4218 C   0  0  0  0  0  0
  -30.5146  -18.1006  -23.2897 C   0  0  0  0  0  0
  -29.4510  -19.1978  -23.1141 C   0  0  0  0  0  0
  -27.8549  -18.3496  -24.8134 N   0  3  0  0  0  0
  -27.6131  -21.5699  -25.0619 O   0  0  0  0  0  0
  -23.9689  -25.2186  -24.2819 C   0  0  0  0  0  0
  -24.3689  -25.9496  -25.2134 O   0  5  0  0  0  0
  -23.7135  -25.6404  -23.1338 O   0  0  0  0  0  0
  -21.4855  -23.0866  -25.5053 C   0  0  0  0  0  0
  -21.3279  -24.5611  -23.1680 H   0  0  0  0  0  0
  -22.3400  -23.5259  -22.1614 H   0  0  0  0  0  0
  -20.8217  -22.9238  -22.8059 H   0  0  0  0  0  0
  -23.9689  -23.6264  -25.6785 H   0  0  0  0  0  0
  -25.0171  -20.9802  -24.9801 H   0  0  0  0  0  0
  -25.1512  -21.0495  -21.9449 H   0  0  0  0  0  0
  -27.0226  -19.8149  -22.5196 H   0  0  0  0  0  0
  -29.1689  -19.9615  -26.5112 H   0  0  0  0  0  0
  -30.2037  -20.7507  -25.3484 H   0  0  0  0  0  0
  -30.2808  -17.7835  -26.0855 H   0  0  0  0  0  0
  -31.4637  -18.9915  -26.5079 H   0  0  0  0  0  0
  -32.1991  -17.6145  -24.5530 H   0  0  0  0  0  0
  -32.0849  -19.3100  -24.1459 H   0  0  0  0  0  0
  -30.0335  -17.1434  -23.4913 H   0  0  0  0  0  0
  -31.0630  -17.9653  -22.3560 H   0  0  0  0  0  0
  -29.9414  -20.1048  -22.7558 H   0  0  0  0  0  0
  -28.7717  -18.8911  -22.3166 H   0  0  0  0  0  0
  -28.4455  -17.5979  -25.1391 H   0  0  0  0  0  0
  -27.3467  -18.0065  -24.0026 H   0  0  0  0  0  0
  -21.2468  -24.1150  -25.7734 H   0  0  0  0  0  0
  -21.9364  -22.6191  -26.3818 H   0  0  0  0  0  0
  -20.5463  -22.5670  -25.3125 H   0  0  0  0  0  0
  -27.1911  -18.5716  -25.5420 H   0  0  0  0  0  0
  1  2  1  0  0  0
  1 24  1  0  0  0
  1 25  1  0  0  0
  1 26  1  0  0  0
  2  6  1  0  0  0
  2  3  1  0  0  0
  2 23  1  0  0  0
  3  4  1  0  0  0
  3 20  1  0  0  0
  3 27  1  0  0  0
  4  8  1  0  0  0
  4  5  1  0  0  0
  5  6  1  0  0  0
  5  7  1  0  0  0
  5 28  1  0  0  0
  7  8  1  0  0  0
  7 10  1  0  0  0
  7 29  1  0  0  0
  8  9  2  0  0  0
 10 11  1  0  0  0
 10 30  1  0  0  0
 11 12  1  0  0  0
 11 19  2  0  0  0
 12 17  1  0  0  0
 12 13  1  0  0  0
 12 18  1  0  0  0
 13 14  1  0  0  0
 13 31  1  0  0  0
 13 32  1  0  0  0
 14 15  1  0  0  0
 14 33  1  0  0  0
 14 34  1  0  0  0
 15 16  1  0  0  0
 15 35  1  0  0  0
 15 36  1  0  0  0
 16 17  1  0  0  0
 16 37  1  0  0  0
 16 38  1  0  0  0
 17 39  1  0  0  0
 17 40  1  0  0  0
 18 41  1  0  0  0
 18 42  1  0  0  0
 18 46  1  0  0  0
 20 21  1  0  0  0
 20 22  2  0  0  0
 23 43  1  0  0  0
 23 44  1  0  0  0
 23 45  1  0  0  0
M  CHG  2  18   1  21  -1
M  END
> <s_m_entry_id>
27451

> <s_m_entry_name>
data_maestro.19

> <s_m_Source_Path>
C:\Users\olshana1\Git\GramNeg-Accumulation\Gram Negative Permeation - OmpF

> <s_m_Source_File>
data_maestro.csv

> <i_m_Source_File_Index>
19

> <s_m_job_name>
glide-dock_Nicaido_neutral

> <s_i_glide_gridfile>
3POX-grid

> <i_i_glide_lignum>
24

> <i_i_glide_rotatable_bonds>
4

> <r_i_docking_score>
-4.97620029764838

> <r_i_glide_ligand_efficiency>
-0.216356534680364

> <r_i_glide_ligand_efficiency_sa>
-0.615289204209519

> <r_i_glide_ligand_efficiency_ln>
-1.20329035366099

> <r_i_glide_gscore>
-5.17950029764838

> <r_i_glide_lipo>
0

> <r_i_glide_hbond>
-0.52

> <r_i_glide_metal>
0

> <r_i_glide_rewards>
-1.24151659259192

> <r_i_glide_evdw>
-22.5480194091797

> <r_i_glide_ecoul>
-15.5609512329102

> <r_i_glide_erotb>
0.487675558125352

> <r_i_glide_esite>
-0.444115607786296

> <r_i_glide_emodel>
-64.8502117865441

> <r_i_glide_energy>
-38.1089706420898

> <r_i_glide_einternal>
5.62521839141846

> <i_i_glide_confnum>
20

> <i_i_glide_posenum>
154

> <r_i_glide_eff_state_penalty>
0.2033

> <r_glide_res:A132_vdw>
-1.58291471527419

> <r_glide_res:A132_coul>
-22.5457007665088

> <r_glide_res:A132_hbond>
0

> <r_glide_res:A132_dist>
2.54236343647262

> <r_glide_res:A132_Eint>
-24.128615481783

> <r_glide_res:A117_vdw>
-2.53142649005213

> <r_glide_res:A117_coul>
-40.1219981098545

> <r_glide_res:A117_hbond>
0

> <r_glide_res:A117_dist>
1.82936691405295

> <r_glide_res:A117_Eint>
-42.6534245999066

> <r_glide_res:A113_vdw>
-0.586116699143514

> <r_glide_res:A113_coul>
-7.10650170898858

> <r_glide_res:A113_hbond>
0

> <r_glide_res:A113_dist>
4.16828116746391

> <r_glide_res:A113_Eint>
-7.69261840813209

> <r_glide_res:A82_vdw>
-1.01269614458833

> <r_glide_res:A82_coul>
-31.0596199064001

> <r_glide_res:A82_hbond>
-0.36

> <r_glide_res:A82_dist>
1.90639617726902

> <r_glide_res:A82_Eint>
-32.4323160509885

> <r_glide_res:A42_vdw>
-2.67664347806259

> <r_glide_res:A42_coul>
-13.2643636370272

> <r_glide_res:A42_hbond>
-0.16

> <r_glide_res:A42_dist>
1.96075880349359

> <r_glide_res:A42_Eint>
-16.1010071150898

> <r_glide_res:A16_vdw>
-0.886588792108636

> <r_glide_res:A16_coul>
9.46500233970938

> <r_glide_res:A16_hbond>
0

> <r_glide_res:A16_dist>
2.2995253492019

> <r_glide_res:A16_Eint>
8.57841354760074

> <s_m_source_file>
ligprep_Nicaido_neutral.maegz

> <i_m_source_file_index>
19

> <i_lp_mmshare_version>
58128

> <i_f3d_flags>
0

> <s_lp_Force_Field>
S-OPLS

> <r_lp_Energy>
30.580191

> <b_lp_Chiralities_Consistent>
1

> <s_lp_Variant>
Cyclacillin-1

> <s_epik_input>
W09IXUMoPU8pW0NAQEhdMUMoW0NIM10pKFtDSDNdKVNbQ0BASF0oTjEyKVtDQEhdKEMyPU8pW05IXUMoPU8pQzMoW05IMl0pW0NIMl1bQ0gyXVtDSDJdW0NIMl1bQ0gyXTM=

> <s_epik_cmdline>
J2VwaWtfcHl0aG9uJywgJy1waHQnLCAnMC4wJywgJy1waCcsICc3LjQnLCAnLW50JywgJy1tYScsICc1MDAnLCAnLWltYWUnLCAnPGluZmlsZS5tYWU+JywgJy1vbWFlJywgJzxvdXRmaWxlLm1hZT4n

> <r_epik_Ionization_Penalty>
  0.2033

> <r_epik_Ionization_Penalty_Charging>
  0.2033

> <r_epik_Ionization_Penalty_Neutral>
  0.0000

> <r_epik_State_Penalty>
  0.2033

> <r_epik_Charging_Adjusted_Penalty>
0.406545099244061

> <i_epik_Tot_Q>
0

> <i_epik_Tot_abs_Q>
2

> <s_epik_Chemistry_Notes>
This compound contains an acetal/aminal-like group ( X-CH(R)-Y where X, Y are N, S, or O) that may be acid/base labile, releasing an aldehyde.

> <s_m_subgroup_title>
glide-dock_Nicaido_neutral_pv1

> <s_m_subgroupid>
glide-dock_Nicaido_neutral_pv1

> <b_m_subgroup_collapsed>
0

$$$$
Cefamandole
                    3D
 Schrodinger Suite 2022-2.
 48 51  0  0  1  0            999 V2000
  -25.1424  -19.6049  -17.7325 C   0  0  0  0  0  0
  -24.7926  -21.0047  -17.5864 N   0  0  0  0  0  0
  -24.8143  -22.0112  -18.4667 C   0  0  0  0  0  0
  -25.3373  -21.8303  -20.1342 S   0  0  0  0  0  0
  -27.1027  -22.1293  -19.8478 C   0  0  0  0  0  0
  -27.9894  -21.4648  -20.8933 C   0  0  0  0  0  0
  -28.5009  -22.1169  -21.9702 C   0  0  0  0  0  0
  -29.4351  -21.5274  -22.8315 N   0  0  0  0  0  0
  -30.2821  -20.4377  -22.4034 C   0  0  2  0  0  0
  -30.9502  -20.4960  -23.7924 C   0  0  2  0  0  0
  -29.9776  -21.6638  -24.0979 C   0  0  0  0  0  0
  -29.7192  -22.4001  -25.0306 O   0  0  0  0  0  0
  -30.6949  -19.3005  -24.5916 N   0  0  0  0  0  0
  -31.1459  -19.1294  -25.8417 C   0  0  0  0  0  0
  -30.7488  -17.8285  -26.5565 C   0  0  2  0  0  0
  -31.9658  -17.1747  -27.2149 C   0  0  0  0  0  0
  -32.8183  -16.3501  -26.4486 C   0  0  0  0  0  0
  -33.9249  -15.7128  -27.0442 C   0  0  0  0  0  0
  -34.1979  -15.9081  -28.4118 C   0  0  0  0  0  0
  -33.3629  -16.7389  -29.1818 C   0  0  0  0  0  0
  -32.2532  -17.3700  -28.5856 C   0  0  0  0  0  0
  -29.6981  -18.0927  -27.4711 O   0  0  0  0  0  0
  -31.8304  -19.9796  -26.4136 O   0  0  0  0  0  0
  -29.1912  -19.1000  -21.8667 S   0  0  0  0  0  0
  -28.2520  -19.9884  -20.5926 C   0  0  0  0  0  0
  -28.1969  -23.6014  -22.2860 C   0  0  0  0  0  0
  -29.1887  -24.3496  -22.4134 O   0  5  0  0  0  0
  -27.0013  -23.9497  -22.4089 O   0  0  0  0  0  0
  -24.3854  -23.1371  -17.9099 N   0  0  0  0  0  0
  -24.0927  -22.7663  -16.6097 N   0  0  0  0  0  0
  -24.3288  -21.5016  -16.4135 N   0  0  0  0  0  0
  -25.8829  -19.4809  -18.5225 H   0  0  0  0  0  0
  -25.5689  -19.2189  -16.8110 H   0  0  0  0  0  0
  -24.2523  -19.0276  -17.9841 H   0  0  0  0  0  0
  -27.3861  -21.7393  -18.8691 H   0  0  0  0  0  0
  -27.2710  -23.2034  -19.7880 H   0  0  0  0  0  0
  -30.9473  -20.7506  -21.5954 H   0  0  0  0  0  0
  -32.0032  -20.7748  -23.7303 H   0  0  0  0  0  0
  -30.1174  -18.5852  -24.1687 H   0  0  0  0  0  0
  -30.3476  -17.1485  -25.8065 H   0  0  0  0  0  0
  -32.6119  -16.1874  -25.4004 H   0  0  0  0  0  0
  -34.5599  -15.0697  -26.4518 H   0  0  0  0  0  0
  -35.0430  -15.4170  -28.8722 H   0  0  0  0  0  0
  -33.5696  -16.8848  -30.2322 H   0  0  0  0  0  0
  -31.6172  -17.9947  -29.1930 H   0  0  0  0  0  0
  -29.3339  -17.2577  -27.7373 H   0  0  0  0  0  0
  -28.7689  -19.9067  -19.6379 H   0  0  0  0  0  0
  -27.3017  -19.4690  -20.4711 H   0  0  0  0  0  0
  1  2  1  0  0  0
  1 32  1  0  0  0
  1 33  1  0  0  0
  1 34  1  0  0  0
  2 31  1  0  0  0
  2  3  1  0  0  0
  3  4  1  0  0  0
  3 29  2  0  0  0
  4  5  1  0  0  0
  5  6  1  0  0  0
  5 35  1  0  0  0
  5 36  1  0  0  0
  6 25  1  0  0  0
  6  7  2  0  0  0
  7  8  1  0  0  0
  7 26  1  0  0  0
  8 11  1  0  0  0
  8  9  1  0  0  0
  9 10  1  0  0  0
  9 24  1  0  0  0
  9 37  1  0  0  0
 10 11  1  0  0  0
 10 13  1  0  0  0
 10 38  1  0  0  0
 11 12  2  0  0  0
 13 14  1  0  0  0
 13 39  1  0  0  0
 14 15  1  0  0  0
 14 23  2  0  0  0
 15 16  1  0  0  0
 15 22  1  0  0  0
 15 40  1  0  0  0
 16 21  1  0  0  0
 16 17  2  0  0  0
 17 18  1  0  0  0
 17 41  1  0  0  0
 18 19  2  0  0  0
 18 42  1  0  0  0
 19 20  1  0  0  0
 19 43  1  0  0  0
 20 21  2  0  0  0
 20 44  1  0  0  0
 21 45  1  0  0  0
 22 46  1  0  0  0
 24 25  1  0  0  0
 25 47  1  0  0  0
 25 48  1  0  0  0
 26 27  1  0  0  0
 26 28  2  0  0  0
 29 30  1  0  0  0
 30 31  2  0  0  0
M  CHG  1  27  -1
M  END
> <s_m_entry_id>
27452

> <s_m_entry_name>
data_maestro.9

> <s_m_Source_Path>
C:\Users\olshana1\Git\GramNeg-Accumulation\Gram Negative Permeation - OmpF

> <s_m_Source_File>
data_maestro.csv

> <i_m_Source_File_Index>
9

> <s_m_job_name>
glide-dock_Nicaido_neutral

> <s_i_glide_gridfile>
3POX-grid

> <i_i_glide_lignum>
12

> <i_i_glide_rotatable_bonds>
9

> <r_i_docking_score>
-4.97396558420483

> <r_i_glide_ligand_efficiency>
-0.160450502716285

> <r_i_glide_ligand_efficiency_sa>
-0.504036104322458

> <r_i_glide_ligand_efficiency_ln>
-1.12178167297674

> <r_i_glide_gscore>
-4.97396558420483

> <r_i_glide_lipo>
-0.515019761780772

> <r_i_glide_hbond>
-0.542760219887126

> <r_i_glide_metal>
0

> <r_i_glide_rewards>
-0.262521890597006

> <r_i_glide_evdw>
-36.5588645935059

> <r_i_glide_ecoul>
-12.5460815429688

> <r_i_glide_erotb>
0.567285116635731

> <r_i_glide_esite>
-0.511093367455049

> <r_i_glide_emodel>
-75.4202009066196

> <r_i_glide_energy>
-49.1049461364746

> <r_i_glide_einternal>
3.91219902038574

> <i_i_glide_confnum>
21

> <i_i_glide_posenum>
295

> <r_i_glide_eff_state_penalty>
0

> <r_glide_res:A132_vdw>
-1.6087801995247

> <r_glide_res:A132_coul>
-40.7515549709405

> <r_glide_res:A132_hbond>
0

> <r_glide_res:A132_dist>
2.53072982024566

> <r_glide_res:A132_Eint>
-42.3603351704652

> <r_glide_res:A117_vdw>
-2.80771181278359

> <r_glide_res:A117_coul>
18.2741121124912

> <r_glide_res:A117_hbond>
0

> <r_glide_res:A117_dist>
2.67276167824698

> <r_glide_res:A117_Eint>
15.4664002997076

> <r_glide_res:A113_vdw>
-2.80318807255648

> <r_glide_res:A113_coul>
18.1744451447109

> <r_glide_res:A113_hbond>
0

> <r_glide_res:A113_dist>
2.3343602395741

> <r_glide_res:A113_Eint>
15.3712570721544

> <r_glide_res:A82_vdw>
1.29436663174912

> <r_glide_res:A82_coul>
-56.5690232885637

> <r_glide_res:A82_hbond>
-0.4

> <r_glide_res:A82_dist>
1.76011347962525

> <r_glide_res:A82_Eint>
-55.6746566568146

> <r_glide_res:A42_vdw>
-1.42172282684317

> <r_glide_res:A42_coul>
-39.197158248732

> <r_glide_res:A42_hbond>
-0.142760219887126

> <r_glide_res:A42_dist>
2.14309945028219

> <r_glide_res:A42_Eint>
-40.7616412954623

> <r_glide_res:A16_vdw>
-1.53374172213694

> <r_glide_res:A16_coul>
-35.2776485083149

> <r_glide_res:A16_hbond>
0

> <r_glide_res:A16_dist>
2.37760814129341

> <r_glide_res:A16_Eint>
-36.8113902304519

> <s_m_source_file>
ligprep_Nicaido_neutral.maegz

> <i_m_source_file_index>
9

> <i_lp_mmshare_version>
58128

> <i_f3d_flags>
0

> <s_lp_Force_Field>
S-OPLS

> <r_lp_Energy>
50.610726

> <b_lp_Chiralities_Consistent>
1

> <s_lp_Variant>
Cefamandole-1

> <s_epik_input>
bjFubmMobjFbQ0gzXSlTW0NIMl1DKD1DMkMoPU8pW09IXSlbQ0gyXVNbQ0BIXShOMjMpW0NASF0oQzM9TylbTkhdQyg9TylbQ0BASF0oW09IXSljNFtjSF1bY0hdW2NIXVtjSF1bY0hdNA==

> <s_epik_cmdline>
J2VwaWtfcHl0aG9uJywgJy1waHQnLCAnMC4wJywgJy1waCcsICc3LjQnLCAnLW50JywgJy1tYScsICc1MDAnLCAnLWltYWUnLCAnPGluZmlsZS5tYWU+JywgJy1vbWFlJywgJzxvdXRmaWxlLm1hZT4n

> <r_lp_tautomer_probability>
1

> <r_epik_Ionization_Penalty>
  0.0002

> <r_epik_Ionization_Penalty_Charging>
  0.0000

> <r_epik_Ionization_Penalty_Neutral>
  0.0002

> <r_epik_State_Penalty>
  0.0000

> <r_epik_Charging_Adjusted_Penalty>
8.65070171415913e-06

> <i_epik_Tot_Q>
-1

> <i_epik_Tot_abs_Q>
1

> <s_epik_Chemistry_Notes>
This compound contains an acetal/aminal-like group ( X-CH(R)-Y where X, Y are N, S, or O) that may be acid/base labile, releasing an aldehyde.

> <s_m_subgroup_title>
glide-dock_Nicaido_neutral_pv1

> <s_m_subgroupid>
glide-dock_Nicaido_neutral_pv1

> <b_m_subgroup_collapsed>
0

$$$$
LY097964
                    3D
 Schrodinger Suite 2022-2.
 40 42  0  0  1  0            999 V2000
  -32.4401  -16.5928  -27.1156 C   0  0  0  0  0  0
  -32.1359  -17.2801  -25.9162 O   0  0  0  0  0  0
  -30.9461  -17.9918  -26.1257 N   0  0  0  0  0  0
  -30.5300  -18.5829  -25.0782 C   0  0  0  0  0  0
  -31.2565  -18.6386  -23.7769 C   0  0  0  0  0  0
  -30.7660  -18.1020  -22.6062 C   0  0  0  0  0  0
  -31.8488  -18.3492  -21.2621 S   0  0  0  0  0  0
  -32.9481  -19.1690  -22.3546 C   0  0  0  0  0  0
  -34.1614  -19.6730  -21.9278 N   0  0  0  0  0  0
  -32.5043  -19.2558  -23.6071 N   0  0  0  0  0  0
  -29.2887  -19.4315  -25.1533 C   0  0  0  0  0  0
  -28.3721  -19.1579  -24.2081 N   0  0  0  0  0  0
  -27.1180  -19.8732  -23.9694 C   0  0  1  0  0  0
  -26.7712  -19.8433  -22.4695 C   0  0  1  0  0  0
  -26.7173  -21.2913  -22.5089 N   0  0  0  0  0  0
  -27.2595  -21.4076  -23.7780 C   0  0  0  0  0  0
  -27.6650  -22.3552  -24.4208 O   0  0  0  0  0  0
  -26.4461  -22.0539  -21.3560 C   0  0  0  0  0  0
  -26.9375  -23.5443  -21.4077 C   0  0  0  0  0  0
  -27.6007  -23.9506  -20.4295 O   0  5  0  0  0  0
  -26.6199  -24.2229  -22.4128 O   0  0  0  0  0  0
  -25.7752  -21.5273  -20.2905 C   0  0  0  0  0  0
  -25.3032  -20.0733  -20.2233 C   0  0  0  0  0  0
  -25.1787  -19.2601  -21.8353 S   0  0  0  0  0  0
  -25.4525  -22.2836  -19.0046 C   0  0  0  0  0  0
  -29.1684  -20.3057  -26.0137 O   0  0  0  0  0  0
  -33.3217  -15.9711  -26.9656 H   0  0  0  0  0  0
  -31.6194  -15.9444  -27.4244 H   0  0  0  0  0  0
  -32.6523  -17.2905  -27.9258 H   0  0  0  0  0  0
  -29.8557  -17.5510  -22.4321 H   0  0  0  0  0  0
  -34.6836  -20.3020  -22.5188 H   0  0  0  0  0  0
  -34.3568  -19.7264  -20.9336 H   0  0  0  0  0  0
  -28.5379  -18.3731  -23.5948 H   0  0  0  0  0  0
  -26.2908  -19.5497  -24.6035 H   0  0  0  0  0  0
  -27.5925  -19.5060  -21.8330 H   0  0  0  0  0  0
  -25.9968  -19.5129  -19.5948 H   0  0  0  0  0  0
  -24.3228  -20.0150  -19.7504 H   0  0  0  0  0  0
  -26.0716  -21.9079  -18.1881 H   0  0  0  0  0  0
  -25.5988  -23.3598  -19.0684 H   0  0  0  0  0  0
  -24.4080  -22.1288  -18.7320 H   0  0  0  0  0  0
  1  2  1  0  0  0
  1 27  1  0  0  0
  1 28  1  0  0  0
  1 29  1  0  0  0
  2  3  1  0  0  0
  3  4  2  3  0  0
  4  5  1  0  0  0
  4 11  1  0  0  0
  5 10  1  0  0  0
  5  6  2  0  0  0
  6  7  1  0  0  0
  6 30  1  0  0  0
  7  8  1  0  0  0
  8  9  1  0  0  0
  8 10  2  0  0  0
  9 31  1  0  0  0
  9 32  1  0  0  0
 11 12  1  0  0  0
 11 26  2  0  0  0
 12 13  1  0  0  0
 12 33  1  0  0  0
 13 16  1  0  0  0
 13 14  1  0  0  0
 13 34  1  0  0  0
 14 24  1  0  0  0
 14 15  1  0  0  0
 14 35  1  0  0  0
 15 16  1  0  0  0
 15 18  1  0  0  0
 16 17  2  0  0  0
 18 19  1  0  0  0
 18 22  2  0  0  0
 19 20  1  0  0  0
 19 21  2  0  0  0
 22 23  1  0  0  0
 22 25  1  0  0  0
 23 24  1  0  0  0
 23 36  1  0  0  0
 23 37  1  0  0  0
 25 38  1  0  0  0
 25 39  1  0  0  0
 25 40  1  0  0  0
M  CHG  1  20  -1
M  END
> <s_m_entry_id>
27453

> <s_m_entry_name>
data_maestro.7

> <s_m_Source_Path>
C:\Users\olshana1\Git\GramNeg-Accumulation\Gram Negative Permeation - OmpF

> <s_m_Source_File>
data_maestro.csv

> <i_m_Source_File_Index>
7

> <s_m_job_name>
glide-dock_Nicaido_neutral

> <s_i_glide_gridfile>
3POX-grid

> <i_i_glide_lignum>
9

> <i_i_glide_rotatable_bonds>
6

> <r_i_docking_score>
-4.97337189375886

> <r_i_glide_ligand_efficiency>
-0.191283534375341

> <r_i_glide_ligand_efficiency_sa>
-0.566676717922584

> <r_i_glide_ligand_efficiency_ln>
-1.16798007028505

> <r_i_glide_gscore>
-4.97337189375886

> <r_i_glide_lipo>
0

> <r_i_glide_hbond>
-1.04922838625518

> <r_i_glide_metal>
0

> <r_i_glide_rewards>
-0.706031914071522

> <r_i_glide_evdw>
-28.5024337768555

> <r_i_glide_ecoul>
-12.1794900894165

> <r_i_glide_erotb>
0.622478626066327

> <r_i_glide_esite>
-0.588545017243239

> <r_i_glide_emodel>
-62.8077623460745

> <r_i_glide_energy>
-40.681923866272

> <r_i_glide_einternal>
5.71242666244507

> <i_i_glide_confnum>
27

> <i_i_glide_posenum>
400

> <r_i_glide_eff_state_penalty>
0

> <r_glide_res:A132_vdw>
0.512028715598974

> <r_glide_res:A132_coul>
-49.209259956306

> <r_glide_res:A132_hbond>
-0.269028346305211

> <r_glide_res:A132_dist>
1.85896178940468

> <r_glide_res:A132_Eint>
-48.9662595870123

> <r_glide_res:A117_vdw>
-6.25093421246026

> <r_glide_res:A117_coul>
14.9623168065885

> <r_glide_res:A117_hbond>
-0.113291533071428

> <r_glide_res:A117_dist>
2.30724381762957

> <r_glide_res:A117_Eint>
8.59809106105683

> <r_glide_res:A113_vdw>
-2.71214469330416

> <r_glide_res:A113_coul>
23.1738846170403

> <r_glide_res:A113_hbond>
-0.306908506878539

> <r_glide_res:A113_dist>
2.11636436640183

> <r_glide_res:A113_Eint>
20.1548314168576

> <r_glide_res:A82_vdw>
1.35616529946426

> <r_glide_res:A82_coul>
-48.6753645014283

> <r_glide_res:A82_hbond>
-0.2

> <r_glide_res:A82_dist>
1.71007730651191

> <r_glide_res:A82_Eint>
-47.5191992019641

> <r_glide_res:A42_vdw>
-1.3195752727627

> <r_glide_res:A42_coul>
-37.2426866417927

> <r_glide_res:A42_hbond>
-0.16

> <r_glide_res:A42_dist>
2.02312547552145

> <r_glide_res:A42_Eint>
-38.7222619145554

> <r_glide_res:A16_vdw>
-1.11839557919942

> <r_glide_res:A16_coul>
-28.3862532709499

> <r_glide_res:A16_hbond>
0

> <r_glide_res:A16_dist>
2.53569497207915

> <r_glide_res:A16_Eint>
-29.5046488501494

> <s_m_source_file>
ligprep_Nicaido_neutral.maegz

> <i_m_source_file_index>
7

> <i_lp_mmshare_version>
58128

> <i_f3d_flags>
0

> <s_lp_Force_Field>
S-OPLS

> <r_lp_Energy>
53.750759

> <b_lp_Chiralities_Consistent>
1

> <s_lp_Variant>
LY097964-1

> <s_epik_input>
W05IMl1jKG4xKXNbY0hdYzEvQyg9TlxPW0NIM10pQyg9TylbTkhdW0NAQEhdMkMoPU8pTihbQ0BIXTIzKUMoQyg9TylbT0hdKT1DKFtDSDJdUzMpW0NIM10=

> <s_epik_cmdline>
J2VwaWtfcHl0aG9uJywgJy1waHQnLCAnMC4wJywgJy1waCcsICc3LjQnLCAnLW50JywgJy1tYScsICc1MDAnLCAnLWltYWUnLCAnPGluZmlsZS5tYWU+JywgJy1vbWFlJywgJzxvdXRmaWxlLm1hZT4n

> <r_lp_tautomer_probability>
1

> <r_epik_Ionization_Penalty>
  0.0005

> <r_epik_Ionization_Penalty_Charging>
  0.0000

> <r_epik_Ionization_Penalty_Neutral>
  0.0005

> <r_epik_State_Penalty>
  0.0000

> <r_epik_Charging_Adjusted_Penalty>
1.64985111359435e-05

> <i_epik_Tot_Q>
-1

> <i_epik_Tot_abs_Q>
1

> <s_epik_Chemistry_Notes>
This compound has an imine and may undergo hydrolysis. This compound contains an acetal/aminal-like group ( X-CH(R)-Y where X, Y are N, S, or O) that may be acid/base labile, releasing an aldehyde.

> <s_m_subgroup_title>
glide-dock_Nicaido_neutral_pv1

> <s_m_subgroupid>
glide-dock_Nicaido_neutral_pv1

> <b_m_subgroup_collapsed>
0

$$$$
Sulbenicillin
                    3D
 Schrodinger Suite 2022-2.
 43 45  0  0  1  0            999 V2000
  -19.8457  -23.0234  -17.8461 C   0  0  0  0  0  0
  -20.8909  -23.4463  -18.9014 C   0  0  0  0  0  0
  -21.7707  -24.6680  -18.4659 C   0  0  2  0  0  0
  -22.9953  -24.0960  -17.9267 N   0  0  0  0  0  0
  -23.2723  -22.6708  -17.8679 C   0  0  1  0  0  0
  -22.0622  -22.0519  -19.0784 S   0  0  0  0  0  0
  -24.7524  -22.9954  -18.1281 C   0  0  2  0  0  0
  -24.3153  -24.4649  -18.0130 C   0  0  0  0  0  0
  -24.8535  -25.5496  -18.0569 O   0  0  0  0  0  0
  -25.2142  -22.5198  -19.4462 N   0  0  0  0  0  0
  -25.0468  -23.0269  -20.6890 C   0  0  0  0  0  0
  -25.4782  -22.1313  -21.8734 C   0  0  2  0  0  0
  -26.4909  -21.0738  -21.4242 C   0  0  0  0  0  0
  -27.8806  -21.3370  -21.3663 C   0  0  0  0  0  0
  -28.7689  -20.3735  -20.8645 C   0  0  0  0  0  0
  -28.2775  -19.1496  -20.3886 C   0  0  0  0  0  0
  -26.8970  -18.8854  -20.4134 C   0  0  0  0  0  0
  -26.0092  -19.8316  -20.9537 C   0  0  0  0  0  0
  -26.0686  -23.1254  -23.3389 S   0  0  0  0  0  0
  -26.5136  -22.1523  -24.3489 O   0  0  0  0  0  0
  -27.1689  -23.9496  -22.8133 O   0  5  0  0  0  0
  -24.9094  -23.9234  -23.7714 O   0  0  0  0  0  0
  -24.5335  -24.1249  -20.9022 O   0  0  0  0  0  0
  -21.0962  -25.7106  -17.5564 C   0  0  0  0  0  0
  -20.1304  -26.3496  -18.0367 O   0  5  0  0  0  0
  -21.5689  -25.9055  -16.4134 O   0  0  0  0  0  0
  -20.1969  -23.7137  -20.2475 C   0  0  0  0  0  0
  -19.0619  -23.7715  -17.7256 H   0  0  0  0  0  0
  -19.3562  -22.0916  -18.1316 H   0  0  0  0  0  0
  -20.3083  -22.8631  -16.8714 H   0  0  0  0  0  0
  -22.0785  -25.2104  -19.3613 H   0  0  0  0  0  0
  -23.0920  -22.2464  -16.8783 H   0  0  0  0  0  0
  -25.3898  -22.6567  -17.3103 H   0  0  0  0  0  0
  -25.6795  -21.6216  -19.4239 H   0  0  0  0  0  0
  -24.5879  -21.6130  -22.2272 H   0  0  0  0  0  0
  -28.3012  -22.2773  -21.6751 H   0  0  0  0  0  0
  -29.8287  -20.5798  -20.8134 H   0  0  0  0  0  0
  -28.9614  -18.4207  -19.9772 H   0  0  0  0  0  0
  -26.5240  -17.9496  -20.0295 H   0  0  0  0  0  0
  -24.9516  -19.6117  -20.9678 H   0  0  0  0  0  0
  -19.5129  -24.5598  -20.1778 H   0  0  0  0  0  0
  -20.9242  -23.9363  -21.0290 H   0  0  0  0  0  0
  -19.6216  -22.8468  -20.5738 H   0  0  0  0  0  0
  1  2  1  0  0  0
  1 28  1  0  0  0
  1 29  1  0  0  0
  1 30  1  0  0  0
  2  6  1  0  0  0
  2  3  1  0  0  0
  2 27  1  0  0  0
  3  4  1  0  0  0
  3 24  1  0  0  0
  3 31  1  0  0  0
  4  8  1  0  0  0
  4  5  1  0  0  0
  5  6  1  0  0  0
  5  7  1  0  0  0
  5 32  1  0  0  0
  7  8  1  0  0  0
  7 10  1  0  0  0
  7 33  1  0  0  0
  8  9  2  0  0  0
 10 11  1  0  0  0
 10 34  1  0  0  0
 11 12  1  0  0  0
 11 23  2  0  0  0
 12 13  1  0  0  0
 12 19  1  0  0  0
 12 35  1  0  0  0
 13 18  1  0  0  0
 13 14  2  0  0  0
 14 15  1  0  0  0
 14 36  1  0  0  0
 15 16  2  0  0  0
 15 37  1  0  0  0
 16 17  1  0  0  0
 16 38  1  0  0  0
 17 18  2  0  0  0
 17 39  1  0  0  0
 18 40  1  0  0  0
 19 20  2  0  0  0
 19 21  1  0  0  0
 19 22  2  0  0  0
 24 25  1  0  0  0
 24 26  2  0  0  0
 27 41  1  0  0  0
 27 42  1  0  0  0
 27 43  1  0  0  0
M  CHG  2  21  -1  25  -1
M  END
> <s_m_entry_id>
27454

> <s_m_entry_name>
data_maestro.23

> <s_m_Source_Path>
C:\Users\olshana1\Git\GramNeg-Accumulation\Gram Negative Permeation - OmpF

> <s_m_Source_File>
data_maestro.csv

> <i_m_Source_File_Index>
23

> <s_m_job_name>
glide-dock_Nicaido_neutral

> <s_i_glide_gridfile>
3POX-grid

> <i_i_glide_lignum>
30

> <i_i_glide_rotatable_bonds>
6

> <r_i_docking_score>
-4.97161888806856

> <r_i_glide_ligand_efficiency>
-0.184134032891428

> <r_i_glide_ligand_efficiency_sa>
-0.552402098067409

> <r_i_glide_ligand_efficiency_ln>
-1.15731091359919

> <r_i_glide_gscore>
-4.97161888806856

> <r_i_glide_lipo>
0

> <r_i_glide_hbond>
-0.971286269726035

> <r_i_glide_metal>
0

> <r_i_glide_rewards>
-0.595804076616329

> <r_i_glide_evdw>
-18.3678169250488

> <r_i_glide_ecoul>
-15.3410196304321

> <r_i_glide_erotb>
0.347763984117939

> <r_i_glide_esite>
-0.532748735026879

> <r_i_glide_emodel>
-54.8309065976125

> <r_i_glide_energy>
-33.708836555481

> <r_i_glide_einternal>
11.665168762207

> <i_i_glide_confnum>
6

> <i_i_glide_posenum>
355

> <r_i_glide_eff_state_penalty>
0

> <r_glide_res:A132_vdw>
-2.60307561468904

> <r_glide_res:A132_coul>
-61.3474862255094

> <r_glide_res:A132_hbond>
-0.114716153493018

> <r_glide_res:A132_dist>
2.13745784476515

> <r_glide_res:A132_Eint>
-64.0652779936915

> <r_glide_res:A117_vdw>
-1.26083973256955

> <r_glide_res:A117_coul>
37.7712233537983

> <r_glide_res:A117_hbond>
0

> <r_glide_res:A117_dist>
2.89796987917417

> <r_glide_res:A117_Eint>
36.5103836212288

> <r_glide_res:A113_vdw>
-1.21755647167121

> <r_glide_res:A113_coul>
34.5687154505808

> <r_glide_res:A113_hbond>
0

> <r_glide_res:A113_dist>
2.50238262996203

> <r_glide_res:A113_Eint>
33.3511589789096

> <r_glide_res:A82_vdw>
3.9301878225636

> <r_glide_res:A82_coul>
-64.2167361090667

> <r_glide_res:A82_hbond>
-0.176917602494256

> <r_glide_res:A82_dist>
1.55383520498851

> <r_glide_res:A82_Eint>
-60.4634658889974

> <r_glide_res:A42_vdw>
-0.747763422412417

> <r_glide_res:A42_coul>
-54.4549527943069

> <r_glide_res:A42_hbond>
0

> <r_glide_res:A42_dist>
2.02343868411986

> <r_glide_res:A42_Eint>
-55.2027162167193

> <r_glide_res:A16_vdw>
-0.0909656024742908

> <r_glide_res:A16_coul>
-33.0462360578777

> <r_glide_res:A16_hbond>
0

> <r_glide_res:A16_dist>
5.42979420653043

> <r_glide_res:A16_Eint>
-33.137201660352

> <s_m_source_file>
ligprep_Nicaido_neutral.maegz

> <i_m_source_file_index>
23

> <i_lp_mmshare_version>
58128

> <i_f3d_flags>
0

> <s_lp_Force_Field>
S-OPLS

> <r_lp_Energy>
22.166908

> <b_lp_Chiralities_Consistent>
1

> <s_lp_Variant>
Sulbenicillin-1

> <s_epik_input>
W09IXUMoPU8pW0NAQEhdMUMoW0NIM10pKFtDSDNdKVNbQ0BIXShOMTIpW0NASF0oQzI9TylbTkhdQyg9TylbQ0BASF0oUyg9TykoPU8pW09IXSljM1tjSF1bY0hdW2NIXVtjSF1bY0hdMw==

> <s_epik_cmdline>
J2VwaWtfcHl0aG9uJywgJy1waHQnLCAnMC4wJywgJy1waCcsICc3LjQnLCAnLW50JywgJy1tYScsICc1MDAnLCAnLWltYWUnLCAnPGluZmlsZS5tYWU+JywgJy1vbWFlJywgJzxvdXRmaWxlLm1hZT4n

> <r_lp_tautomer_probability>
1

> <r_epik_Ionization_Penalty>
  0.0000

> <r_epik_Ionization_Penalty_Charging>
  0.0000

> <r_epik_Ionization_Penalty_Neutral>
  0.0000

> <r_epik_State_Penalty>
  0.0000

> <r_epik_Charging_Adjusted_Penalty>
1.13251598244902e-05

> <i_epik_Tot_Q>
-2

> <i_epik_Tot_abs_Q>
2

> <s_epik_Chemistry_Notes>
This compound contains an acetal/aminal-like group ( X-CH(R)-Y where X, Y are N, S, or O) that may be acid/base labile, releasing an aldehyde.

> <s_m_subgroup_title>
glide-dock_Nicaido_neutral_pv1

> <s_m_subgroupid>
glide-dock_Nicaido_neutral_pv1

> <b_m_subgroup_collapsed>
0

$$$$
Ceftizoxime
                    3D
 Schrodinger Suite 2022-2.
 37 39  0  0  1  0            999 V2000
  -29.1695  -26.1258  -16.9972 C   0  0  0  0  0  0
  -28.7689  -24.8107  -17.3087 O   0  0  0  0  0  0
  -29.2623  -24.4836  -18.5681 N   0  0  0  0  0  0
  -28.5980  -23.5502  -19.1267 C   0  0  0  0  0  0
  -27.3665  -22.9013  -18.6049 C   0  0  0  0  0  0
  -26.2950  -23.6336  -18.1444 C   0  0  0  0  0  0
  -24.9984  -22.6237  -17.5724 S   0  0  0  0  0  0
  -25.9607  -21.2263  -18.0134 C   0  0  0  0  0  0
  -25.5043  -19.9429  -17.8181 N   0  0  0  0  0  0
  -27.1431  -21.5225  -18.5442 N   0  0  0  0  0  0
  -28.9807  -23.0783  -20.4917 C   0  0  0  0  0  0
  -30.2809  -22.7386  -20.5634 N   0  0  0  0  0  0
  -31.0316  -22.1429  -21.6715 C   0  0  1  0  0  0
  -30.4498  -20.7962  -22.1510 C   0  0  1  0  0  0
  -30.3765  -21.3930  -23.4703 N   0  0  0  0  0  0
  -30.6581  -22.6856  -23.0658 C   0  0  0  0  0  0
  -30.5855  -23.7668  -23.6129 O   0  0  0  0  0  0
  -29.8385  -20.6896  -24.5520 C   0  0  0  0  0  0
  -29.1375  -21.5495  -25.6317 C   0  0  0  0  0  0
  -28.2687  -22.3495  -25.2134 O   0  5  0  0  0  0
  -29.5689  -21.4638  -26.8045 O   0  0  0  0  0  0
  -29.8260  -19.3397  -24.5940 C   0  0  0  0  0  0
  -30.3982  -18.4162  -23.5230 C   0  0  0  0  0  0
  -31.4449  -19.2753  -22.3059 S   0  0  0  0  0  0
  -28.1675  -23.0629  -21.4181 O   0  0  0  0  0  0
  -28.7692  -26.3496  -16.0133 H   0  0  0  0  0  0
  -30.2539  -26.2278  -16.9548 H   0  0  0  0  0  0
  -28.7682  -26.8518  -17.7047 H   0  0  0  0  0  0
  -26.2203  -24.7050  -18.0503 H   0  0  0  0  0  0
  -26.2129  -19.2123  -17.8051 H   0  0  0  0  0  0
  -24.7429  -19.7863  -17.1758 H   0  0  0  0  0  0
  -30.7681  -22.6868  -19.6666 H   0  0  0  0  0  0
  -32.1034  -22.0817  -21.4811 H   0  0  0  0  0  0
  -29.4523  -20.5711  -21.7663 H   0  0  0  0  0  0
  -29.3393  -18.8428  -25.4219 H   0  0  0  0  0  0
  -29.5691  -17.9404  -22.9986 H   0  0  0  0  0  0
  -30.9802  -17.6211  -23.9904 H   0  0  0  0  0  0
  1  2  1  0  0  0
  1 26  1  0  0  0
  1 27  1  0  0  0
  1 28  1  0  0  0
  2  3  1  0  0  0
  3  4  2  3  0  0
  4  5  1  0  0  0
  4 11  1  0  0  0
  5 10  1  0  0  0
  5  6  2  0  0  0
  6  7  1  0  0  0
  6 29  1  0  0  0
  7  8  1  0  0  0
  8  9  1  0  0  0
  8 10  2  0  0  0
  9 30  1  0  0  0
  9 31  1  0  0  0
 11 12  1  0  0  0
 11 25  2  0  0  0
 12 13  1  0  0  0
 12 32  1  0  0  0
 13 16  1  0  0  0
 13 14  1  0  0  0
 13 33  1  0  0  0
 14 24  1  0  0  0
 14 15  1  0  0  0
 14 34  1  0  0  0
 15 16  1  0  0  0
 15 18  1  0  0  0
 16 17  2  0  0  0
 18 19  1  0  0  0
 18 22  2  0  0  0
 19 20  1  0  0  0
 19 21  2  0  0  0
 22 23  1  0  0  0
 22 35  1  0  0  0
 23 24  1  0  0  0
 23 36  1  0  0  0
 23 37  1  0  0  0
M  CHG  1  20  -1
M  END
> <s_m_entry_id>
27455

> <s_m_entry_name>
data_maestro.5

> <s_m_Source_Path>
C:\Users\olshana1\Git\GramNeg-Accumulation\Gram Negative Permeation - OmpF

> <s_m_Source_File>
data_maestro.csv

> <i_m_Source_File_Index>
5

> <s_m_job_name>
glide-dock_Nicaido_neutral

> <s_i_glide_gridfile>
3POX-grid

> <i_i_glide_lignum>
5

> <i_i_glide_rotatable_bonds>
6

> <r_i_docking_score>
-4.96317302554826

> <r_i_glide_ligand_efficiency>
-0.198526921021931

> <r_i_glide_ligand_efficiency_sa>
-0.580496237958061

> <r_i_glide_ligand_efficiency_ln>
-1.17642074134839

> <r_i_glide_gscore>
-4.96317302554826

> <r_i_glide_lipo>
-0.000954167954497515

> <r_i_glide_hbond>
-1.07557011232654

> <r_i_glide_metal>
0

> <r_i_glide_rewards>
-0.73355486414872

> <r_i_glide_evdw>
-25.9721012115479

> <r_i_glide_ecoul>
-11.9214200973511

> <r_i_glide_erotb>
0.664075194683877

> <r_i_glide_esite>
-0.730351000622325

> <r_i_glide_emodel>
-57.5615753899254

> <r_i_glide_energy>
-37.8935213088989

> <r_i_glide_einternal>
8.15100002288818

> <i_i_glide_confnum>
8

> <i_i_glide_posenum>
291

> <r_i_glide_eff_state_penalty>
0

> <r_glide_res:A132_vdw>
-2.96939285601664

> <r_glide_res:A132_coul>
-22.852252309241

> <r_glide_res:A132_hbond>
0

> <r_glide_res:A132_dist>
2.5026675303861

> <r_glide_res:A132_Eint>
-25.8216451652577

> <r_glide_res:A117_vdw>
-2.26805906639734

> <r_glide_res:A117_coul>
26.0909667466831

> <r_glide_res:A117_hbond>
0

> <r_glide_res:A117_dist>
2.63028031815381

> <r_glide_res:A117_Eint>
23.8229076802857

> <r_glide_res:A113_vdw>
-2.52750512563139

> <r_glide_res:A113_coul>
11.6936313018518

> <r_glide_res:A113_hbond>
-0.152

> <r_glide_res:A113_dist>
1.73527741306125

> <r_glide_res:A113_Eint>
9.0141261762204

> <r_glide_res:A82_vdw>
-1.49124151512865

> <r_glide_res:A82_coul>
-39.0760175671359

> <r_glide_res:A82_hbond>
-0.0714196768278043

> <r_glide_res:A82_dist>
2.20159717845037

> <r_glide_res:A82_Eint>
-40.6386787590924

> <r_glide_res:A42_vdw>
1.28519221565446

> <r_glide_res:A42_coul>
-54.9586448369524

> <r_glide_res:A42_hbond>
-0.38248143898208

> <r_glide_res:A42_dist>
1.82682305330873

> <r_glide_res:A42_Eint>
-54.05593406028

> <r_glide_res:A16_vdw>
4.68360479271775

> <r_glide_res:A16_coul>
-54.213728149549

> <r_glide_res:A16_hbond>
-0.165668996516659

> <r_glide_res:A16_dist>
1.53133799303332

> <r_glide_res:A16_Eint>
-49.6957923533479

> <s_m_source_file>
ligprep_Nicaido_neutral.maegz

> <i_m_source_file_index>
5

> <i_lp_mmshare_version>
58128

> <i_f3d_flags>
0

> <s_lp_Force_Field>
S-OPLS

> <r_lp_Energy>
52.616387

> <b_lp_Chiralities_Consistent>
1

> <s_lp_Variant>
Ceftizoxime-1

> <s_epik_input>
W05IMl1jKG4xKXNbY0hdYzEvQyg9TlxPW0NIM10pQyg9TylbTkhdW0NAQEhdMkMoPU8pTihbQ0BIXTIzKUMoQyg9TylbT0hdKT1bQ0hdW0NIMl1TMw==

> <s_epik_cmdline>
J2VwaWtfcHl0aG9uJywgJy1waHQnLCAnMC4wJywgJy1waCcsICc3LjQnLCAnLW50JywgJy1tYScsICc1MDAnLCAnLWltYWUnLCAnPGluZmlsZS5tYWU+JywgJy1vbWFlJywgJzxvdXRmaWxlLm1hZT4n

> <r_lp_tautomer_probability>
1

> <r_epik_Ionization_Penalty>
  0.0005

> <r_epik_Ionization_Penalty_Charging>
  0.0000

> <r_epik_Ionization_Penalty_Neutral>
  0.0005

> <r_epik_State_Penalty>
  0.0000

> <r_epik_Charging_Adjusted_Penalty>
4.86746471452517e-05

> <i_epik_Tot_Q>
-1

> <i_epik_Tot_abs_Q>
1

> <s_epik_Chemistry_Notes>
This compound has an imine and may undergo hydrolysis. This compound contains an acetal/aminal-like group ( X-CH(R)-Y where X, Y are N, S, or O) that may be acid/base labile, releasing an aldehyde.

> <s_m_subgroup_title>
glide-dock_Nicaido_neutral_pv1

> <s_m_subgroupid>
glide-dock_Nicaido_neutral_pv1

> <b_m_subgroup_collapsed>
0

$$$$
Cefoperazone
                    3D
 Schrodinger Suite 2022-2.
 70 74  0  0  1  0            999 V2000
  -32.6487  -25.8470  -30.7435 C   0  0  0  0  0  0
  -33.2020  -26.4083  -29.4187 C   0  0  0  0  0  0
  -33.3898  -25.3654  -28.4036 N   0  0  0  0  0  0
  -34.7449  -25.1646  -27.9040 C   0  0  0  0  0  0
  -35.0034  -23.7245  -27.4300 C   0  0  0  0  0  0
  -33.8530  -23.0214  -26.8112 N   0  0  0  0  0  0
  -32.5772  -23.5250  -26.9265 C   0  0  0  0  0  0
  -32.3323  -24.7800  -27.8188 C   0  0  0  0  0  0
  -31.1710  -25.1496  -28.0128 O   0  0  0  0  0  0
  -31.5646  -23.0247  -26.4172 O   0  0  0  0  0  0
  -34.1813  -21.8412  -26.1851 C   0  0  0  0  0  0
  -33.2001  -20.9300  -26.0683 N   0  0  0  0  0  0
  -33.2236  -19.6650  -25.3265 C   0  0  2  0  0  0
  -33.3256  -18.4944  -26.2695 C   0  0  0  0  0  0
  -33.7792  -17.2384  -25.7937 C   0  0  0  0  0  0
  -33.8609  -16.1108  -26.6333 C   0  0  0  0  0  0
  -33.4986  -16.2191  -27.9861 C   0  0  0  0  0  0
  -33.0649  -17.4539  -28.4938 C   0  0  0  0  0  0
  -32.9821  -18.5724  -27.6441 C   0  0  0  0  0  0
  -33.5696  -15.1382  -28.8106 O   0  0  0  0  0  0
  -31.9138  -19.4424  -24.5302 C   0  0  0  0  0  0
  -30.9324  -20.3488  -24.6694 N   0  0  0  0  0  0
  -29.5916  -20.2114  -24.1161 C   0  0  1  0  0  0
  -29.5284  -20.4092  -22.5937 C   0  0  1  0  0  0
  -28.5295  -21.4313  -22.8422 N   0  0  0  0  0  0
  -28.8062  -21.5345  -24.1970 C   0  0  0  0  0  0
  -28.5443  -22.3574  -25.0484 O   0  0  0  0  0  0
  -27.9031  -22.1229  -21.7877 C   0  0  0  0  0  0
  -27.5134  -23.5896  -22.0978 C   0  0  0  0  0  0
  -28.4573  -24.3457  -22.4141 O   0  5  0  0  0  0
  -26.3161  -23.9293  -21.9778 O   0  0  0  0  0  0
  -27.7755  -21.5972  -20.5418 C   0  0  0  0  0  0
  -28.2778  -20.2100  -20.1710 C   0  0  0  0  0  0
  -28.7789  -19.1501  -21.5416 S   0  0  0  0  0  0
  -27.2179  -22.3517  -19.3343 C   0  0  0  0  0  0
  -25.6214  -21.6748  -18.7930 S   0  0  0  0  0  0
  -24.7849  -23.1580  -18.3378 C   0  0  0  0  0  0
  -24.6909  -24.2643  -19.0723 N   0  0  0  0  0  0
  -23.8808  -25.0946  -18.3259 N   0  0  0  0  0  0
  -23.5132  -24.5190  -17.2182 N   0  0  0  0  0  0
  -24.0977  -23.2962  -17.1980 N   0  0  0  0  0  0
  -23.9122  -22.4077  -16.0663 C   0  0  0  0  0  0
  -31.7865  -18.4541  -23.8093 O   0  0  0  0  0  0
  -35.3242  -21.5752  -25.8156 O   0  0  0  0  0  0
  -32.3680  -26.6515  -31.4258 H   0  0  0  0  0  0
  -31.7512  -25.2493  -30.5918 H   0  0  0  0  0  0
  -33.3852  -25.2186  -31.2424 H   0  0  0  0  0  0
  -34.1309  -26.9483  -29.6065 H   0  0  0  0  0  0
  -32.5089  -27.1495  -29.0191 H   0  0  0  0  0  0
  -35.4868  -25.4314  -28.6586 H   0  0  0  0  0  0
  -34.8914  -25.8521  -27.0704 H   0  0  0  0  0  0
  -35.3151  -23.1326  -28.2957 H   0  0  0  0  0  0
  -35.8676  -23.7540  -26.7629 H   0  0  0  0  0  0
  -32.2977  -21.2177  -26.4098 H   0  0  0  0  0  0
  -34.0509  -19.6586  -24.6149 H   0  0  0  0  0  0
  -34.0492  -17.1330  -24.7519 H   0  0  0  0  0  0
  -34.1945  -15.1689  -26.2248 H   0  0  0  0  0  0
  -32.7922  -17.5422  -29.5350 H   0  0  0  0  0  0
  -32.6478  -19.5017  -28.0705 H   0  0  0  0  0  0
  -33.8438  -14.3578  -28.3530 H   0  0  0  0  0  0
  -31.1175  -21.1985  -25.1831 H   0  0  0  0  0  0
  -29.0491  -19.3284  -24.4573 H   0  0  0  0  0  0
  -30.4336  -20.8281  -22.1482 H   0  0  0  0  0  0
  -29.1652  -20.4030  -19.5991 H   0  0  0  0  0  0
  -27.5696  -19.6731  -19.5386 H   0  0  0  0  0  0
  -27.9284  -22.2672  -18.5117 H   0  0  0  0  0  0
  -27.1262  -23.4199  -19.5109 H   0  0  0  0  0  0
  -24.2088  -21.3896  -16.3192 H   0  0  0  0  0  0
  -24.5251  -22.7487  -15.2309 H   0  0  0  0  0  0
  -22.8660  -22.4018  -15.7623 H   0  0  0  0  0  0
  1  2  1  0  0  0
  1 45  1  0  0  0
  1 46  1  0  0  0
  1 47  1  0  0  0
  2  3  1  0  0  0
  2 48  1  0  0  0
  2 49  1  0  0  0
  3  8  1  0  0  0
  3  4  1  0  0  0
  4  5  1  0  0  0
  4 50  1  0  0  0
  4 51  1  0  0  0
  5  6  1  0  0  0
  5 52  1  0  0  0
  5 53  1  0  0  0
  6  7  1  0  0  0
  6 11  1  0  0  0
  7  8  1  0  0  0
  7 10  2  0  0  0
  8  9  2  0  0  0
 11 12  1  0  0  0
 11 44  2  0  0  0
 12 13  1  0  0  0
 12 54  1  0  0  0
 13 14  1  0  0  0
 13 21  1  0  0  0
 13 55  1  0  0  0
 14 19  1  0  0  0
 14 15  2  0  0  0
 15 16  1  0  0  0
 15 56  1  0  0  0
 16 17  2  0  0  0
 16 57  1  0  0  0
 17 18  1  0  0  0
 17 20  1  0  0  0
 18 19  2  0  0  0
 18 58  1  0  0  0
 19 59  1  0  0  0
 20 60  1  0  0  0
 21 22  1  0  0  0
 21 43  2  0  0  0
 22 23  1  0  0  0
 22 61  1  0  0  0
 23 26  1  0  0  0
 23 24  1  0  0  0
 23 62  1  0  0  0
 24 34  1  0  0  0
 24 25  1  0  0  0
 24 63  1  0  0  0
 25 26  1  0  0  0
 25 28  1  0  0  0
 26 27  2  0  0  0
 28 29  1  0  0  0
 28 32  2  0  0  0
 29 30  1  0  0  0
 29 31  2  0  0  0
 32 33  1  0  0  0
 32 35  1  0  0  0
 33 34  1  0  0  0
 33 64  1  0  0  0
 33 65  1  0  0  0
 35 36  1  0  0  0
 35 66  1  0  0  0
 35 67  1  0  0  0
 36 37  1  0  0  0
 37 41  1  0  0  0
 37 38  2  0  0  0
 38 39  1  0  0  0
 39 40  2  0  0  0
 40 41  1  0  0  0
 41 42  1  0  0  0
 42 68  1  0  0  0
 42 69  1  0  0  0
 42 70  1  0  0  0
M  CHG  1  30  -1
M  END
> <s_m_entry_id>
27456

> <s_m_entry_name>
data_maestro.8

> <s_m_Source_Path>
C:\Users\olshana1\Git\GramNeg-Accumulation\Gram Negative Permeation - OmpF

> <s_m_Source_File>
data_maestro.csv

> <i_m_Source_File_Index>
8

> <s_m_job_name>
glide-dock_Nicaido_neutral

> <s_i_glide_gridfile>
3POX-grid

> <i_i_glide_lignum>
11

> <i_i_glide_rotatable_bonds>
13

> <r_i_docking_score>
-4.95937550217296

> <r_i_glide_ligand_efficiency>
-0.11271307959484

> <r_i_glide_ligand_efficiency_sa>
-0.397916432415187

> <r_i_glide_ligand_efficiency_ln>
-1.0366176681235

> <r_i_glide_gscore>
-4.95937550217296

> <r_i_glide_lipo>
-0.447895451434029

> <r_i_glide_hbond>
-1.01347062943805

> <r_i_glide_metal>
0

> <r_i_glide_rewards>
0.00638041208532947

> <r_i_glide_evdw>
-42.7446479797363

> <r_i_glide_ecoul>
-6.26101684570313

> <r_i_glide_erotb>
0.362700252817045

> <r_i_glide_esite>
-0.790705160360975

> <r_i_glide_emodel>
-74.0959612999966

> <r_i_glide_energy>
-49.0056648254395

> <r_i_glide_einternal>
11.0246543884277

> <i_i_glide_confnum>
398

> <i_i_glide_posenum>
184

> <r_i_glide_eff_state_penalty>
0

> <r_glide_res:A132_vdw>
-1.41834524335729

> <r_glide_res:A132_coul>
-46.4098773428659

> <r_glide_res:A132_hbond>
-0.15537668135367

> <r_glide_res:A132_dist>
2.11866792976653

> <r_glide_res:A132_Eint>
-47.9835992675769

> <r_glide_res:A117_vdw>
-1.38281633827704

> <r_glide_res:A117_coul>
23.8861269349326

> <r_glide_res:A117_hbond>
0

> <r_glide_res:A117_dist>
3.01551747293264

> <r_glide_res:A117_Eint>
22.5033105966555

> <r_glide_res:A113_vdw>
-0.774288718188064

> <r_glide_res:A113_coul>
21.7778273156918

> <r_glide_res:A113_hbond>
0

> <r_glide_res:A113_dist>
2.03152966730957

> <r_glide_res:A113_Eint>
21.0035385975037

> <r_glide_res:A82_vdw>
-0.928855655736449

> <r_glide_res:A82_coul>
-52.0266003363808

> <r_glide_res:A82_hbond>
-0.445827975137312

> <r_glide_res:A82_dist>
1.99005786306598

> <r_glide_res:A82_Eint>
-53.4012839672545

> <r_glide_res:A42_vdw>
-1.84109838278991

> <r_glide_res:A42_coul>
-43.4355044572249

> <r_glide_res:A42_hbond>
-0.412265972947066

> <r_glide_res:A42_dist>
1.88140108742001

> <r_glide_res:A42_Eint>
-45.6888688129619

> <r_glide_res:A16_vdw>
-4.92526556974533

> <r_glide_res:A16_coul>
-16.4321787002836

> <r_glide_res:A16_hbond>
0

> <r_glide_res:A16_dist>
1.96917044389519

> <r_glide_res:A16_Eint>
-21.357444270029

> <s_m_source_file>
ligprep_Nicaido_neutral.maegz

> <i_m_source_file_index>
8

> <i_lp_mmshare_version>
58128

> <i_f3d_flags>
0

> <s_lp_Force_Field>
S-OPLS

> <r_lp_Energy>
85.319288

> <b_lp_Chiralities_Consistent>
1

> <s_lp_Variant>
Cefoperazone-1

> <s_epik_input>
W0NIM11bQ0gyXU4xW0NIMl1bQ0gyXU4oQyg9TylDMT1PKUMoPU8pW05IXVtDQEhdKGMyW2NIXVtjSF1jKFtPSF0pW2NIXVtjSF0yKUMoPU8pW05IXVtDQEBIXTNDKD1PKU4oW0NASF0zNClDKEMoPU8pW09IXSk9QyhbQ0gyXVM0KVtDSDJdU2M1bm5ubjVbQ0gzXQ==

> <s_epik_cmdline>
J2VwaWtfcHl0aG9uJywgJy1waHQnLCAnMC4wJywgJy1waCcsICc3LjQnLCAnLW50JywgJy1tYScsICc1MDAnLCAnLWltYWUnLCAnPGluZmlsZS5tYWU+JywgJy1vbWFlJywgJzxvdXRmaWxlLm1hZT4n

> <r_lp_tautomer_probability>
1

> <r_epik_Ionization_Penalty>
  0.0158

> <r_epik_Ionization_Penalty_Charging>
  0.0000

> <r_epik_Ionization_Penalty_Neutral>
  0.0158

> <r_epik_State_Penalty>
  0.0000

> <r_epik_Charging_Adjusted_Penalty>
8.23416745038905e-06

> <i_epik_Tot_Q>
-1

> <i_epik_Tot_abs_Q>
1

> <s_epik_Chemistry_Notes>
This compound contains an acetal/aminal-like group ( X-CH(R)-Y where X, Y are N, S, or O) that may be acid/base labile, releasing an aldehyde.

> <s_m_subgroup_title>
glide-dock_Nicaido_neutral_pv1

> <s_m_subgroupid>
glide-dock_Nicaido_neutral_pv1

> <b_m_subgroup_collapsed>
0

$$$$
Ceftizoxime
                    3D
 Schrodinger Suite 2022-2.
 37 39  0  0  1  0            999 V2000
  -25.8633  -25.7905  -18.0587 C   0  0  0  0  0  0
  -26.8286  -24.8305  -18.4133 O   0  0  0  0  0  0
  -26.2007  -23.5802  -18.4259 N   0  0  0  0  0  0
  -26.8495  -22.6551  -19.0229 C   0  0  0  0  0  0
  -26.2291  -21.2952  -19.0418 C   0  0  0  0  0  0
  -25.5632  -20.8044  -17.9391 C   0  0  0  0  0  0
  -24.7691  -19.2841  -18.2603 S   0  0  0  0  0  0
  -25.4140  -19.3477  -19.8919 C   0  0  0  0  0  0
  -25.1690  -18.3502  -20.8136 N   0  0  0  0  0  0
  -26.1277  -20.4414  -20.1501 N   0  0  0  0  0  0
  -28.1821  -22.8366  -19.7717 C   0  0  0  0  0  0
  -28.7557  -21.6947  -20.1838 N   0  0  0  0  0  0
  -29.8720  -21.5668  -21.1210 C   0  0  1  0  0  0
  -29.7043  -20.2877  -21.9671 C   0  0  1  0  0  0
  -29.7455  -21.1336  -23.1452 N   0  0  0  0  0  0
  -29.6825  -22.3348  -22.4612 C   0  0  0  0  0  0
  -29.5217  -23.4837  -22.8248 O   0  0  0  0  0  0
  -29.6210  -20.6028  -24.4391 C   0  0  0  0  0  0
  -29.0646  -21.5496  -25.5499 C   0  0  0  0  0  0
  -28.1627  -22.3495  -25.2132 O   0  5  0  0  0  0
  -29.5689  -21.4590  -26.6912 O   0  0  0  0  0  0
  -29.8936  -19.3046  -24.6997 C   0  0  0  0  0  0
  -30.3871  -18.2766  -23.6867 C   0  0  0  0  0  0
  -31.0008  -19.0215  -22.1466 S   0  0  0  0  0  0
  -28.6470  -23.9494  -20.0380 O   0  0  0  0  0  0
  -26.3694  -26.7259  -17.8148 H   0  0  0  0  0  0
  -25.1838  -25.9493  -18.8933 H   0  0  0  0  0  0
  -25.2491  -25.4898  -17.2133 H   0  0  0  0  0  0
  -25.4793  -21.2546  -16.9598 H   0  0  0  0  0  0
  -25.7963  -18.2484  -21.6035 H   0  0  0  0  0  0
  -24.7422  -17.4929  -20.4981 H   0  0  0  0  0  0
  -28.3357  -20.8234  -19.8879 H   0  0  0  0  0  0
  -30.8577  -21.6521  -20.6643 H   0  0  0  0  0  0
  -28.7215  -19.8202  -21.8665 H   0  0  0  0  0  0
  -29.7308  -18.9246  -25.6979 H   0  0  0  0  0  0
  -29.5691  -17.5962  -23.4514 H   0  0  0  0  0  0
  -31.1849  -17.6787  -24.1270 H   0  0  0  0  0  0
  1  2  1  0  0  0
  1 26  1  0  0  0
  1 27  1  0  0  0
  1 28  1  0  0  0
  2  3  1  0  0  0
  3  4  2  3  0  0
  4  5  1  0  0  0
  4 11  1  0  0  0
  5 10  1  0  0  0
  5  6  2  0  0  0
  6  7  1  0  0  0
  6 29  1  0  0  0
  7  8  1  0  0  0
  8  9  1  0  0  0
  8 10  2  0  0  0
  9 30  1  0  0  0
  9 31  1  0  0  0
 11 12  1  0  0  0
 11 25  2  0  0  0
 12 13  1  0  0  0
 12 32  1  0  0  0
 13 16  1  0  0  0
 13 14  1  0  0  0
 13 33  1  0  0  0
 14 24  1  0  0  0
 14 15  1  0  0  0
 14 34  1  0  0  0
 15 16  1  0  0  0
 15 18  1  0  0  0
 16 17  2  0  0  0
 18 19  1  0  0  0
 18 22  2  0  0  0
 19 20  1  0  0  0
 19 21  2  0  0  0
 22 23  1  0  0  0
 22 35  1  0  0  0
 23 24  1  0  0  0
 23 36  1  0  0  0
 23 37  1  0  0  0
M  CHG  1  20  -1
M  END
> <s_m_entry_id>
27457

> <s_m_entry_name>
data_maestro.5

> <s_m_Source_Path>
C:\Users\olshana1\Git\GramNeg-Accumulation\Gram Negative Permeation - OmpF

> <s_m_Source_File>
data_maestro.csv

> <i_m_Source_File_Index>
5

> <s_m_job_name>
glide-dock_Nicaido_neutral

> <s_i_glide_gridfile>
3POX-grid

> <i_i_glide_lignum>
6

> <i_i_glide_rotatable_bonds>
6

> <r_i_docking_score>
-4.95159630504507

> <r_i_glide_ligand_efficiency>
-0.198063852201803

> <r_i_glide_ligand_efficiency_sa>
-0.579142216515447

> <r_i_glide_ligand_efficiency_ln>
-1.17367671166282

> <r_i_glide_gscore>
-4.95159630504507

> <r_i_glide_lipo>
0

> <r_i_glide_hbond>
-0.951479291050907

> <r_i_glide_metal>
0

> <r_i_glide_rewards>
-0.784635538876463

> <r_i_glide_evdw>
-28.1845073699951

> <r_i_glide_ecoul>
-11.8706169128418

> <r_i_glide_erotb>
0.664075194683877

> <r_i_glide_esite>
-0.689738764375547

> <r_i_glide_emodel>
-62.060041578052

> <r_i_glide_energy>
-40.0551242828369

> <r_i_glide_einternal>
3.61598110198975

> <i_i_glide_confnum>
17

> <i_i_glide_posenum>
149

> <r_i_glide_eff_state_penalty>
0

> <r_glide_res:A132_vdw>
-1.88660346176736

> <r_glide_res:A132_coul>
-35.1310641241434

> <r_glide_res:A132_hbond>
-0.16

> <r_glide_res:A132_dist>
1.85549920689565

> <r_glide_res:A132_Eint>
-37.1776675859107

> <r_glide_res:A117_vdw>
-3.46195293264474

> <r_glide_res:A117_coul>
22.222125555676

> <r_glide_res:A117_hbond>
-0.128683377552482

> <r_glide_res:A117_dist>
2.30626630889635

> <r_glide_res:A117_Eint>
18.6314892454788

> <r_glide_res:A113_vdw>
-3.98575839067652

> <r_glide_res:A113_coul>
17.8040595149681

> <r_glide_res:A113_hbond>
0

> <r_glide_res:A113_dist>
2.57090817736329

> <r_glide_res:A113_Eint>
13.8183011242916

> <r_glide_res:A82_vdw>
-1.68133367031996

> <r_glide_res:A82_coul>
-40.8353089403784

> <r_glide_res:A82_hbond>
-0.0794893148004143

> <r_glide_res:A82_dist>
2.30127671299896

> <r_glide_res:A82_Eint>
-42.5961319254988

> <r_glide_res:A42_vdw>
2.14374234910867

> <r_glide_res:A42_coul>
-54.4202535284594

> <r_glide_res:A42_hbond>
-0.383306598698011

> <r_glide_res:A42_dist>
1.74572962074714

> <r_glide_res:A42_Eint>
-52.6598177780487

> <r_glide_res:A16_vdw>
2.23102427436567

> <r_glide_res:A16_coul>
-50.6614413403851

> <r_glide_res:A16_hbond>
-0.2

> <r_glide_res:A16_dist>
1.62875706819159

> <r_glide_res:A16_Eint>
-48.6304170660195

> <s_m_source_file>
ligprep_Nicaido_neutral.maegz

> <i_m_source_file_index>
5

> <i_lp_mmshare_version>
58128

> <i_f3d_flags>
0

> <s_lp_Force_Field>
S-OPLS

> <r_lp_Energy>
52.500132

> <b_lp_Chiralities_Consistent>
1

> <s_lp_Variant>
Ceftizoxime-2

> <s_epik_input>
W05IMl1jKG4xKXNbY0hdYzEvQyg9TlxPW0NIM10pQyg9TylbTkhdW0NAQEhdMkMoPU8pTihbQ0BIXTIzKUMoQyg9TylbT0hdKT1bQ0hdW0NIMl1TMw==

> <s_epik_cmdline>
J2VwaWtfcHl0aG9uJywgJy1waHQnLCAnMC4wJywgJy1waCcsICc3LjQnLCAnLW50JywgJy1tYScsICc1MDAnLCAnLWltYWUnLCAnPGluZmlsZS5tYWU+JywgJy1vbWFlJywgJzxvdXRmaWxlLm1hZT4n

> <r_lp_tautomer_probability>
1

> <r_epik_Ionization_Penalty>
  0.0005

> <r_epik_Ionization_Penalty_Charging>
  0.0000

> <r_epik_Ionization_Penalty_Neutral>
  0.0005

> <r_epik_State_Penalty>
  0.0000

> <r_epik_Charging_Adjusted_Penalty>
4.86746471452517e-05

> <i_epik_Tot_Q>
-1

> <i_epik_Tot_abs_Q>
1

> <s_epik_Chemistry_Notes>
This compound has an imine and may undergo hydrolysis. This compound contains an acetal/aminal-like group ( X-CH(R)-Y where X, Y are N, S, or O) that may be acid/base labile, releasing an aldehyde.

> <s_m_subgroup_title>
glide-dock_Nicaido_neutral_pv1

> <s_m_subgroupid>
glide-dock_Nicaido_neutral_pv1

> <b_m_subgroup_collapsed>
0

$$$$
Ceftazidime
                    3D
 Schrodinger Suite 2022-2.
 58 61  0  0  1  0            999 V2000
  -17.9880  -23.1489  -18.4648 C   0  0  0  0  0  0
  -19.1436  -24.1417  -18.7647 C   0  0  0  0  0  0
  -18.8308  -24.8828  -20.0829 C   0  0  0  0  0  0
  -19.3092  -25.1571  -17.6056 C   0  0  0  0  0  0
  -19.5693  -26.3481  -17.9077 O   0  5  0  0  0  0
  -19.1698  -24.7495  -16.4254 O   0  0  0  0  0  0
  -20.4050  -23.5166  -19.0277 O   0  0  0  0  0  0
  -20.6342  -22.4275  -18.1654 N   0  0  0  0  0  0
  -21.8650  -22.1327  -18.0073 C   0  0  0  0  0  0
  -23.0477  -23.0217  -18.4136 C   0  0  0  0  0  0
  -24.1590  -22.3487  -18.7431 N   0  0  0  0  0  0
  -25.3836  -22.9498  -19.2554 C   0  0  1  0  0  0
  -26.3731  -21.8937  -19.7865 C   0  0  2  0  0  0
  -26.0327  -22.3412  -21.1283 N   0  0  0  0  0  0
  -26.6739  -21.7867  -22.2482 C   0  0  0  0  0  0
  -27.3385  -22.8068  -23.2565 C   0  0  0  0  0  0
  -27.5637  -22.4414  -24.4323 O   0  5  0  0  0  0
  -27.5855  -23.9495  -22.8084 O   0  0  0  0  0  0
  -26.7197  -20.4314  -22.3258 C   0  0  0  0  0  0
  -27.3812  -19.6154  -23.4343 C   0  0  0  0  0  0
  -28.7681  -19.1631  -23.1245 N   0  3  0  0  0  0
  -29.2730  -19.1543  -21.8570 C   0  0  0  0  0  0
  -30.6012  -18.7511  -21.6132 C   0  0  0  0  0  0
  -31.4071  -18.3496  -22.6932 C   0  0  0  0  0  0
  -30.8583  -18.3339  -23.9889 C   0  0  0  0  0  0
  -29.5249  -18.7514  -24.1734 C   0  0  0  0  0  0
  -25.9196  -19.5774  -21.3402 C   0  0  0  0  0  0
  -26.1174  -20.0870  -19.6133 S   0  0  0  0  0  0
  -25.2754  -23.4270  -20.7264 C   0  0  0  0  0  0
  -24.7689  -24.3495  -21.3324 O   0  0  0  0  0  0
  -22.9846  -24.2546  -18.4377 O   0  0  0  0  0  0
  -22.1937  -20.8393  -17.3362 C   0  0  0  0  0  0
  -21.4778  -20.4060  -16.2417 C   0  0  0  0  0  0
  -21.9716  -18.8193  -15.7093 S   0  0  0  0  0  0
  -23.1537  -18.7999  -17.0083 C   0  0  0  0  0  0
  -24.0171  -17.7428  -17.2134 N   0  0  0  0  0  0
  -23.1401  -19.8952  -17.7602 N   0  0  0  0  0  0
  -17.0323  -23.6697  -18.4067 H   0  0  0  0  0  0
  -17.9053  -22.3965  -19.2485 H   0  0  0  0  0  0
  -18.1174  -22.6204  -17.5191 H   0  0  0  0  0  0
  -17.9112  -25.4641  -20.0076 H   0  0  0  0  0  0
  -19.6370  -25.5609  -20.3652 H   0  0  0  0  0  0
  -18.7060  -24.1760  -20.9026 H   0  0  0  0  0  0
  -24.1424  -21.3368  -18.6665 H   0  0  0  0  0  0
  -25.8533  -23.6539  -18.5672 H   0  0  0  0  0  0
  -27.4091  -22.1505  -19.5544 H   0  0  0  0  0  0
  -26.7706  -18.7462  -23.6352 H   0  0  0  0  0  0
  -27.4083  -20.1333  -24.3869 H   0  0  0  0  0  0
  -28.6329  -19.4611  -21.0461 H   0  0  0  0  0  0
  -30.9897  -18.7502  -20.6028 H   0  0  0  0  0  0
  -32.4234  -18.0222  -22.5230 H   0  0  0  0  0  0
  -31.4483  -17.9889  -24.8255 H   0  0  0  0  0  0
  -29.0462  -18.7524  -25.1409 H   0  0  0  0  0  0
  -24.8647  -19.6335  -21.6110 H   0  0  0  0  0  0
  -26.1999  -18.5262  -21.3990 H   0  0  0  0  0  0
  -20.6765  -20.9193  -15.7292 H   0  0  0  0  0  0
  -24.8729  -17.9198  -17.7214 H   0  0  0  0  0  0
  -24.0963  -17.0607  -16.4698 H   0  0  0  0  0  0
  1  2  1  0  0  0
  1 38  1  0  0  0
  1 39  1  0  0  0
  1 40  1  0  0  0
  2  3  1  0  0  0
  2  4  1  0  0  0
  2  7  1  0  0  0
  3 41  1  0  0  0
  3 42  1  0  0  0
  3 43  1  0  0  0
  4  5  1  0  0  0
  4  6  2  0  0  0
  7  8  1  0  0  0
  8  9  2  3  0  0
  9 10  1  0  0  0
  9 32  1  0  0  0
 10 11  1  0  0  0
 10 31  2  0  0  0
 11 12  1  0  0  0
 11 44  1  0  0  0
 12 29  1  0  0  0
 12 13  1  0  0  0
 12 45  1  0  0  0
 13 28  1  0  0  0
 13 14  1  0  0  0
 13 46  1  0  0  0
 14 15  1  0  0  0
 14 29  1  0  0  0
 15 16  1  0  0  0
 15 19  2  0  0  0
 16 17  1  0  0  0
 16 18  2  0  0  0
 19 20  1  0  0  0
 19 27  1  0  0  0
 20 21  1  0  0  0
 20 47  1  0  0  0
 20 48  1  0  0  0
 21 26  1  0  0  0
 21 22  2  0  0  0
 22 23  1  0  0  0
 22 49  1  0  0  0
 23 24  2  0  0  0
 23 50  1  0  0  0
 24 25  1  0  0  0
 24 51  1  0  0  0
 25 26  2  0  0  0
 25 52  1  0  0  0
 26 53  1  0  0  0
 27 28  1  0  0  0
 27 54  1  0  0  0
 27 55  1  0  0  0
 29 30  2  0  0  0
 32 37  1  0  0  0
 32 33  2  0  0  0
 33 34  1  0  0  0
 33 56  1  0  0  0
 34 35  1  0  0  0
 35 36  1  0  0  0
 35 37  2  0  0  0
 36 57  1  0  0  0
 36 58  1  0  0  0
M  CHG  3   5  -1  17  -1  21   1
M  END
> <s_m_entry_id>
27458

> <s_m_entry_name>
data_maestro.30

> <s_m_Source_Path>
C:\Users\olshana1\Git\GramNeg-Accumulation\Gram Negative Permeation - OmpF

> <s_m_Source_File>
data_maestro.csv

> <i_m_Source_File_Index>
30

> <s_m_job_name>
glide-dock_Nicaido_neutral

> <s_i_glide_gridfile>
3POX-grid

> <i_i_glide_lignum>
39

> <i_i_glide_rotatable_bonds>
10

> <r_i_docking_score>
-4.94999610127148

> <r_i_glide_ligand_efficiency>
-0.133783678412743

> <r_i_glide_ligand_efficiency_sa>
-0.445796896063937

> <r_i_glide_ligand_efficiency_ln>
-1.07353810999268

> <r_i_glide_gscore>
-4.94999610127148

> <r_i_glide_lipo>
0

> <r_i_glide_hbond>
-0.984974674083479

> <r_i_glide_metal>
0

> <r_i_glide_rewards>
0.0746054419933426

> <r_i_glide_evdw>
-28.540864944458

> <r_i_glide_ecoul>
-18.1378173828125

> <r_i_glide_erotb>
0.556495996469625

> <r_i_glide_esite>
-0.448407011006189

> <r_i_glide_emodel>
-75.9370418680289

> <r_i_glide_energy>
-46.6786823272705

> <r_i_glide_einternal>
12.5194149017334

> <i_i_glide_confnum>
295

> <i_i_glide_posenum>
362

> <r_i_glide_eff_state_penalty>
0

> <r_glide_res:A132_vdw>
0.657858344107313

> <r_glide_res:A132_coul>
-36.5693601532939

> <r_glide_res:A132_hbond>
-0.111277704375426

> <r_glide_res:A132_dist>
1.86195249976435

> <r_glide_res:A132_Eint>
-36.022779513562

> <r_glide_res:A117_vdw>
-3.56305038202072

> <r_glide_res:A117_coul>
-2.76015921241773

> <r_glide_res:A117_hbond>
0

> <r_glide_res:A117_dist>
2.31978353000248

> <r_glide_res:A117_Eint>
-6.32320959443845

> <r_glide_res:A113_vdw>
-0.412190539576541

> <r_glide_res:A113_coul>
2.11085729686465

> <r_glide_res:A113_hbond>
0

> <r_glide_res:A113_dist>
2.25168717742135

> <r_glide_res:A113_Eint>
1.69866675728811

> <r_glide_res:A82_vdw>
2.5773763192648

> <r_glide_res:A82_coul>
-43.262533248099

> <r_glide_res:A82_hbond>
-0.2

> <r_glide_res:A82_dist>
1.60575747405031

> <r_glide_res:A82_Eint>
-40.8851569288342

> <r_glide_res:A42_vdw>
-0.673675571134698

> <r_glide_res:A42_coul>
-31.8849058889175

> <r_glide_res:A42_hbond>
-0.2

> <r_glide_res:A42_dist>
1.94746776808915

> <r_glide_res:A42_Eint>
-32.7585814600522

> <r_glide_res:A16_vdw>
-0.252712733708776

> <r_glide_res:A16_coul>
-8.69617906471022

> <r_glide_res:A16_hbond>
0

> <r_glide_res:A16_dist>
4.02822900383052

> <r_glide_res:A16_Eint>
-8.94889179841899

> <s_m_source_file>
ligprep_Nicaido_neutral.maegz

> <i_m_source_file_index>
30

> <i_lp_mmshare_version>
58128

> <i_f3d_flags>
0

> <s_lp_Force_Field>
S-OPLS

> <r_lp_Energy>
82.572273

> <b_lp_Chiralities_Consistent>
1

> <s_lp_Variant>
Ceftazidime-2

> <s_epik_input>
W09IXUMoPU8pQyhbQ0gzXSkoW0NIM10pTy9OPUMoYzFbY0hdc2MobjEpW05IMl0pL0MoPU8pW05IXVtDQEBIXTJDKD1PKU4oW0NAQEhdMjMpQyhDKD1PKVtPSF0pPUMoW0NIMl1TMylbQ0gyXVtuK100W2NIXVtjSF1bY0hdW2NIXVtjSF00

> <s_epik_cmdline>
J2VwaWtfcHl0aG9uJywgJy1waHQnLCAnMC4wJywgJy1waCcsICc3LjQnLCAnLW50JywgJy1tYScsICc1MDAnLCAnLWltYWUnLCAnPGluZmlsZS5tYWU+JywgJy1vbWFlJywgJzxvdXRmaWxlLm1hZT4n

> <r_lp_tautomer_probability>
1

> <r_epik_Ionization_Penalty>
  0.0005

> <r_epik_Ionization_Penalty_Charging>
  0.0001

> <r_epik_Ionization_Penalty_Neutral>
  0.0005

> <r_epik_State_Penalty>
  0.0000

> <r_epik_Charging_Adjusted_Penalty>
5.84857251211915e-05

> <i_epik_Tot_Q>
-1

> <i_epik_Tot_abs_Q>
3

> <s_epik_Chemistry_Notes>
This compound has an imine and may undergo hydrolysis. This compound contains an acetal/aminal-like group ( X-CH(R)-Y where X, Y are N, S, or O) that may be acid/base labile, releasing an aldehyde.

> <s_m_subgroup_title>
glide-dock_Nicaido_neutral_pv1

> <s_m_subgroupid>
glide-dock_Nicaido_neutral_pv1

> <b_m_subgroup_collapsed>
0

$$$$
Aztreonam
                    3D
 Schrodinger Suite 2022-2.
 43 44  0  0  1  0            999 V2000
  -22.5227  -21.8400  -18.2368 C   0  0  0  0  0  0
  -23.2955  -22.6638  -17.1961 C   0  0  1  0  0  0
  -24.7472  -23.1406  -17.4565 C   0  0  2  0  0  0
  -24.1007  -24.5042  -17.8093 C   0  0  0  0  0  0
  -22.9285  -24.0722  -17.2318 N   0  0  0  0  0  0
  -21.3758  -24.6381  -17.0429 S   0  0  0  0  0  0
  -20.8325  -24.7131  -18.4063 O   0  0  0  0  0  0
  -21.5689  -25.9499  -16.4135 O   0  5  0  0  0  0
  -20.7000  -23.6694  -16.1695 O   0  0  0  0  0  0
  -24.4114  -25.5444  -18.3539 O   0  0  0  0  0  0
  -25.3481  -22.4001  -18.5674 N   0  0  0  0  0  0
  -26.1814  -22.8453  -19.5241 C   0  0  0  0  0  0
  -26.5539  -21.8142  -20.5843 C   0  0  0  0  0  0
  -25.8810  -20.4704  -20.5119 C   0  0  0  0  0  0
  -25.2989  -19.8802  -21.6134 C   0  0  0  0  0  0
  -24.5470  -18.3500  -21.2365 S   0  0  0  0  0  0
  -25.0571  -18.5599  -19.5728 C   0  0  0  0  0  0
  -24.7688  -17.6363  -18.5855 N   0  0  0  0  0  0
  -25.7292  -19.6873  -19.3567 N   0  0  0  0  0  0
  -27.3740  -22.1884  -21.4824 N   0  0  0  0  0  0
  -27.6855  -21.2149  -22.4470 O   0  0  0  0  0  0
  -28.9192  -21.5329  -23.1140 C   0  0  0  0  0  0
  -28.8115  -22.8402  -23.9571 C   0  0  0  0  0  0
  -28.7694  -22.7495  -25.2106 O   0  5  0  0  0  0
  -28.7693  -23.9381  -23.3438 O   0  0  0  0  0  0
  -30.0844  -21.6469  -22.0980 C   0  0  0  0  0  0
  -29.1609  -20.3160  -24.0311 C   0  0  0  0  0  0
  -26.5993  -24.0063  -19.5878 O   0  0  0  0  0  0
  -22.8956  -20.8156  -18.2785 H   0  0  0  0  0  0
  -21.4622  -21.7806  -17.9912 H   0  0  0  0  0  0
  -22.6036  -22.2623  -19.2399 H   0  0  0  0  0  0
  -23.1801  -22.2754  -16.1818 H   0  0  0  0  0  0
  -25.3563  -23.1412  -16.5517 H   0  0  0  0  0  0
  -25.1364  -21.4089  -18.5945 H   0  0  0  0  0  0
  -25.2775  -20.2449  -22.6301 H   0  0  0  0  0  0
  -25.3530  -17.6567  -17.7591 H   0  0  0  0  0  0
  -24.4156  -16.7265  -18.8401 H   0  0  0  0  0  0
  -31.0441  -21.7459  -22.6063 H   0  0  0  0  0  0
  -29.9838  -22.5060  -21.4338 H   0  0  0  0  0  0
  -30.1387  -20.7586  -21.4658 H   0  0  0  0  0  0
  -30.0795  -20.4243  -24.6084 H   0  0  0  0  0  0
  -29.2474  -19.3993  -23.4456 H   0  0  0  0  0  0
  -28.3380  -20.1701  -24.7319 H   0  0  0  0  0  0
  1  2  1  0  0  0
  1 29  1  0  0  0
  1 30  1  0  0  0
  1 31  1  0  0  0
  2  5  1  0  0  0
  2  3  1  0  0  0
  2 32  1  0  0  0
  3  4  1  0  0  0
  3 11  1  0  0  0
  3 33  1  0  0  0
  4  5  1  0  0  0
  4 10  2  0  0  0
  5  6  1  0  0  0
  6  7  2  0  0  0
  6  8  1  0  0  0
  6  9  2  0  0  0
 11 12  1  0  0  0
 11 34  1  0  0  0
 12 13  1  0  0  0
 12 28  2  0  0  0
 13 14  1  0  0  0
 13 20  2  3  0  0
 14 19  1  0  0  0
 14 15  2  0  0  0
 15 16  1  0  0  0
 15 35  1  0  0  0
 16 17  1  0  0  0
 17 18  1  0  0  0
 17 19  2  0  0  0
 18 36  1  0  0  0
 18 37  1  0  0  0
 20 21  1  0  0  0
 21 22  1  0  0  0
 22 23  1  0  0  0
 22 26  1  0  0  0
 22 27  1  0  0  0
 23 24  1  0  0  0
 23 25  2  0  0  0
 26 38  1  0  0  0
 26 39  1  0  0  0
 26 40  1  0  0  0
 27 41  1  0  0  0
 27 42  1  0  0  0
 27 43  1  0  0  0
M  CHG  2   8  -1  24  -1
M  END
> <s_m_entry_id>
27459

> <s_m_entry_name>
data_maestro.21

> <s_m_Source_Path>
C:\Users\olshana1\Git\GramNeg-Accumulation\Gram Negative Permeation - OmpF

> <s_m_Source_File>
data_maestro.csv

> <i_m_Source_File_Index>
21

> <s_m_job_name>
glide-dock_Nicaido_neutral

> <s_i_glide_gridfile>
3POX-grid

> <i_i_glide_lignum>
26

> <i_i_glide_rotatable_bonds>
8

> <r_i_docking_score>
-4.94620776002831

> <r_i_glide_ligand_efficiency>
-0.176650277143868

> <r_i_glide_ligand_efficiency_sa>
-0.536414282858035

> <r_i_glide_ligand_efficiency_ln>
-1.14172997798487

> <r_i_glide_gscore>
-4.94620776002831

> <r_i_glide_lipo>
0

> <r_i_glide_hbond>
-1.18424138271186

> <r_i_glide_metal>
0

> <r_i_glide_rewards>
-0.413123579449401

> <r_i_glide_evdw>
-24.3848609924316

> <r_i_glide_ecoul>
-14.3430404663086

> <r_i_glide_erotb>
0.635830109179744

> <r_i_glide_esite>
-0.613973787478917

> <r_i_glide_emodel>
-65.9775781504726

> <r_i_glide_energy>
-38.7279014587402

> <r_i_glide_einternal>
5.95711278915405

> <i_i_glide_confnum>
33

> <i_i_glide_posenum>
285

> <r_i_glide_eff_state_penalty>
0

> <r_glide_res:A132_vdw>
-2.53377495854391

> <r_glide_res:A132_coul>
-61.4011405170136

> <r_glide_res:A132_hbond>
-0.0915375596962571

> <r_glide_res:A132_dist>
2.26118193484

> <r_glide_res:A132_Eint>
-64.0264530352538

> <r_glide_res:A117_vdw>
-2.66772271083473

> <r_glide_res:A117_coul>
34.9719753941344

> <r_glide_res:A117_hbond>
0

> <r_glide_res:A117_dist>
3.42065757620262

> <r_glide_res:A117_Eint>
32.3042526832997

> <r_glide_res:A113_vdw>
-1.59259019321942

> <r_glide_res:A113_coul>
39.7123726434154

> <r_glide_res:A113_hbond>
0

> <r_glide_res:A113_dist>
3.03715505250346

> <r_glide_res:A113_Eint>
38.1197824501959

> <r_glide_res:A82_vdw>
1.77287236008583

> <r_glide_res:A82_coul>
-68.8676427640373

> <r_glide_res:A82_hbond>
-0.254374639510059

> <r_glide_res:A82_dist>
1.88489861888846

> <r_glide_res:A82_Eint>
-67.3491450434616

> <r_glide_res:A42_vdw>
2.9268870661154

> <r_glide_res:A42_coul>
-66.2606527089285

> <r_glide_res:A42_hbond>
-0.312282973075102

> <r_glide_res:A42_dist>
1.68051890924648

> <r_glide_res:A42_Eint>
-63.6460486158882

> <r_glide_res:A16_vdw>
-0.340140214486792

> <r_glide_res:A16_coul>
-40.9371137747578

> <r_glide_res:A16_hbond>
0

> <r_glide_res:A16_dist>
3.59392073634982

> <r_glide_res:A16_Eint>
-41.2772539892446

> <s_m_source_file>
ligprep_Nicaido_neutral.maegz

> <i_m_source_file_index>
21

> <i_lp_mmshare_version>
58128

> <i_f3d_flags>
0

> <s_lp_Force_Field>
S-OPLS

> <r_lp_Energy>
55.612973

> <b_lp_Chiralities_Consistent>
1

> <s_lp_Variant>
Aztreonam-1

> <s_epik_input>
Tz1TKD1PKShbT0hdKU4xQyg9TylbQ0BASF0oW0NAQEhdMVtDSDNdKVtOSF1DKD1PKS9DKGMyW2NIXXNjKG4yKVtOSDJdKT1OL09DKFtDSDNdKShbQ0gzXSlDKD1PKVtPSF0=

> <s_epik_cmdline>
J2VwaWtfcHl0aG9uJywgJy1waHQnLCAnMC4wJywgJy1waCcsICc3LjQnLCAnLW50JywgJy1tYScsICc1MDAnLCAnLWltYWUnLCAnPGluZmlsZS5tYWU+JywgJy1vbWFlJywgJzxvdXRmaWxlLm1hZT4n

> <r_lp_tautomer_probability>
1

> <r_epik_Ionization_Penalty>
  0.0004

> <r_epik_Ionization_Penalty_Charging>
  0.0000

> <r_epik_Ionization_Penalty_Neutral>
  0.0004

> <r_epik_State_Penalty>
  0.0000

> <r_epik_Charging_Adjusted_Penalty>
4.45674509427693e-05

> <i_epik_Tot_Q>
-2

> <i_epik_Tot_abs_Q>
2

> <s_epik_Chemistry_Notes>
This compound has an imine and may undergo hydrolysis.

> <s_m_subgroup_title>
glide-dock_Nicaido_neutral_pv1

> <s_m_subgroupid>
glide-dock_Nicaido_neutral_pv1

> <b_m_subgroup_collapsed>
0

$$$$
Cephalexin
                    3D
 Schrodinger Suite 2022-2.
 40 42  0  0  1  0            999 V2000
  -28.2221  -22.5130  -19.5041 C   0  0  0  0  0  0
  -27.7705  -21.6308  -20.6568 C   0  0  0  0  0  0
  -27.6420  -22.0379  -21.9413 C   0  0  0  0  0  0
  -27.2093  -21.1075  -22.8979 N   0  0  0  0  0  0
  -25.9744  -20.3726  -22.6424 C   0  0  1  0  0  0
  -26.2272  -19.6898  -24.0055 C   0  0  2  0  0  0
  -27.1408  -20.9223  -24.2684 C   0  0  0  0  0  0
  -27.5691  -21.5521  -25.2134 O   0  0  0  0  0  0
  -25.0102  -19.5518  -24.8332 N   0  0  0  0  0  0
  -24.1995  -20.5334  -25.2951 C   0  0  0  0  0  0
  -22.9220  -20.1584  -26.0786 C   0  0  2  0  0  0
  -21.7789  -20.6431  -25.2491 C   0  0  0  0  0  0
  -21.0661  -21.8091  -25.6132 C   0  0  0  0  0  0
  -19.9661  -22.2648  -24.8611 C   0  0  0  0  0  0
  -19.5571  -21.5579  -23.7166 C   0  0  0  0  0  0
  -20.2502  -20.3965  -23.3321 C   0  0  0  0  0  0
  -21.3464  -19.9473  -24.0933 C   0  0  0  0  0  0
  -22.7690  -18.7496  -26.4139 N   0  0  0  0  0  0
  -24.4350  -21.7318  -25.1229 O   0  0  0  0  0  0
  -26.0446  -19.4820  -21.0349 S   0  0  0  0  0  0
  -27.5562  -20.1685  -20.2883 C   0  0  0  0  0  0
  -27.8761  -23.5080  -22.4136 C   0  0  0  0  0  0
  -29.0147  -23.8387  -22.8132 O   0  5  0  0  0  0
  -26.8653  -24.2455  -22.4133 O   0  0  0  0  0  0
  -27.4896  -22.4811  -18.6971 H   0  0  0  0  0  0
  -29.1675  -22.1375  -19.1144 H   0  0  0  0  0  0
  -28.3695  -23.5539  -19.7821 H   0  0  0  0  0  0
  -25.1221  -21.0570  -22.6406 H   0  0  0  0  0  0
  -26.7702  -18.7498  -23.8992 H   0  0  0  0  0  0
  -24.7689  -18.5837  -25.0476 H   0  0  0  0  0  0
  -22.9572  -20.7090  -27.0203 H   0  0  0  0  0  0
  -21.3614  -22.3572  -26.4952 H   0  0  0  0  0  0
  -19.4314  -23.1507  -25.1692 H   0  0  0  0  0  0
  -18.7113  -21.8999  -23.1389 H   0  0  0  0  0  0
  -19.9390  -19.8427  -22.4584 H   0  0  0  0  0  0
  -21.8600  -19.0450  -23.7917 H   0  0  0  0  0  0
  -22.8122  -18.5967  -27.4104 H   0  0  0  0  0  0
  -23.4917  -18.1522  -26.0138 H   0  0  0  0  0  0
  -28.4207  -19.5925  -20.6216 H   0  0  0  0  0  0
  -27.4946  -20.0432  -19.2066 H   0  0  0  0  0  0
  1  2  1  0  0  0
  1 25  1  0  0  0
  1 26  1  0  0  0
  1 27  1  0  0  0
  2 21  1  0  0  0
  2  3  2  0  0  0
  3  4  1  0  0  0
  3 22  1  0  0  0
  4  7  1  0  0  0
  4  5  1  0  0  0
  5  6  1  0  0  0
  5 20  1  0  0  0
  5 28  1  0  0  0
  6  7  1  0  0  0
  6  9  1  0  0  0
  6 29  1  0  0  0
  7  8  2  0  0  0
  9 10  1  0  0  0
  9 30  1  0  0  0
 10 11  1  0  0  0
 10 19  2  0  0  0
 11 12  1  0  0  0
 11 18  1  0  0  0
 11 31  1  0  0  0
 12 17  1  0  0  0
 12 13  2  0  0  0
 13 14  1  0  0  0
 13 32  1  0  0  0
 14 15  2  0  0  0
 14 33  1  0  0  0
 15 16  1  0  0  0
 15 34  1  0  0  0
 16 17  2  0  0  0
 16 35  1  0  0  0
 17 36  1  0  0  0
 18 37  1  0  0  0
 18 38  1  0  0  0
 20 21  1  0  0  0
 21 39  1  0  0  0
 21 40  1  0  0  0
 22 23  1  0  0  0
 22 24  2  0  0  0
M  CHG  1  23  -1
M  END
> <s_m_entry_id>
27460

> <s_m_entry_name>
data_maestro.14

> <s_m_Source_Path>
C:\Users\olshana1\Git\GramNeg-Accumulation\Gram Negative Permeation - OmpF

> <s_m_Source_File>
data_maestro.csv

> <i_m_Source_File_Index>
14

> <s_m_job_name>
glide-dock_Nicaido_neutral

> <s_i_glide_gridfile>
3POX-grid

> <i_i_glide_lignum>
19

> <i_i_glide_rotatable_bonds>
5

> <r_i_docking_score>
-4.94618908772949

> <r_i_glide_ligand_efficiency>
-0.206091211988729

> <r_i_glide_ligand_efficiency_sa>
-0.594469923240001

> <r_i_glide_ligand_efficiency_ln>
-1.18385001452161

> <r_i_glide_gscore>
-5.06138908772949

> <r_i_glide_lipo>
0

> <r_i_glide_hbond>
-0.909440840880765

> <r_i_glide_metal>
0

> <r_i_glide_rewards>
-1.04728878048834

> <r_i_glide_evdw>
-23.8877410888672

> <r_i_glide_ecoul>
-13.1642732620239

> <r_i_glide_erotb>
0.475363118437828

> <r_i_glide_esite>
-0.410994541051259

> <r_i_glide_emodel>
-56.8301006966939

> <r_i_glide_energy>
-37.0520143508911

> <r_i_glide_einternal>
6.83357572555542

> <i_i_glide_confnum>
19

> <i_i_glide_posenum>
345

> <r_i_glide_eff_state_penalty>
0.1152

> <r_glide_res:A132_vdw>
-1.18333398378727

> <r_glide_res:A132_coul>
-40.9569690448965

> <r_glide_res:A132_hbond>
-0.0384462212870448

> <r_glide_res:A132_dist>
2.26481484520478

> <r_glide_res:A132_Eint>
-42.1787492499708

> <r_glide_res:A117_vdw>
-2.59076475167178

> <r_glide_res:A117_coul>
3.83834733858061

> <r_glide_res:A117_hbond>
-0.304

> <r_glide_res:A117_dist>
1.79692822950766

> <r_glide_res:A117_Eint>
0.943582586908826

> <r_glide_res:A113_vdw>
-1.55523237396188

> <r_glide_res:A113_coul>
24.5883426380778

> <r_glide_res:A113_hbond>
0

> <r_glide_res:A113_dist>
2.2975021465661

> <r_glide_res:A113_Eint>
23.0331102641159

> <r_glide_res:A82_vdw>
3.12667007311426

> <r_glide_res:A82_coul>
-56.8401747253857

> <r_glide_res:A82_hbond>
-0.41499461959372

> <r_glide_res:A82_dist>
1.62995989777139

> <r_glide_res:A82_Eint>
-54.1284992718651

> <r_glide_res:A42_vdw>
-1.32835779147832

> <r_glide_res:A42_coul>
-41.5307287851059

> <r_glide_res:A42_hbond>
-0.152

> <r_glide_res:A42_dist>
1.87701266752027

> <r_glide_res:A42_Eint>
-43.0110865765842

> <r_glide_res:A16_vdw>
-0.28235666006821

> <r_glide_res:A16_coul>
-23.5323919632698

> <r_glide_res:A16_hbond>
0

> <r_glide_res:A16_dist>
4.00208090554245

> <r_glide_res:A16_Eint>
-23.8147486233381

> <s_m_source_file>
ligprep_Nicaido_neutral.maegz

> <i_m_source_file_index>
14

> <i_lp_mmshare_version>
58128

> <i_f3d_flags>
0

> <s_lp_Force_Field>
S-OPLS

> <r_lp_Energy>
47.820483

> <b_lp_Chiralities_Consistent>
1

> <s_lp_Variant>
Cephalexin-1

> <s_epik_input>
W09IXUMoPU8pQzE9QyhbQ0gzXSlbQ0gyXVNbQ0BASF0oTjEyKVtDQEhdKEMyPU8pW05IXUMoPU8pW0NAQEhdKFtOSDJdKWMzW2NIXVtjSF1bY0hdW2NIXVtjSF0z

> <s_epik_cmdline>
J2VwaWtfcHl0aG9uJywgJy1waHQnLCAnMC4wJywgJy1waCcsICc3LjQnLCAnLW50JywgJy1tYScsICc1MDAnLCAnLWltYWUnLCAnPGluZmlsZS5tYWU+JywgJy1vbWFlJywgJzxvdXRmaWxlLm1hZT4n

> <r_epik_Ionization_Penalty>
  0.1152

> <r_epik_Ionization_Penalty_Charging>
  0.0000

> <r_epik_Ionization_Penalty_Neutral>
  0.1152

> <r_epik_State_Penalty>
  0.1152

> <r_epik_Charging_Adjusted_Penalty>
0.115182589938214

> <i_epik_Tot_Q>
-1

> <i_epik_Tot_abs_Q>
1

> <s_epik_Chemistry_Notes>
This compound contains an acetal/aminal-like group ( X-CH(R)-Y where X, Y are N, S, or O) that may be acid/base labile, releasing an aldehyde.

> <s_m_subgroup_title>
glide-dock_Nicaido_neutral_pv1

> <s_m_subgroupid>
glide-dock_Nicaido_neutral_pv1

> <b_m_subgroup_collapsed>
0

$$$$
Aztreonam
                    3D
 Schrodinger Suite 2022-2.
 43 44  0  0  1  0            999 V2000
  -30.3759  -19.5549  -22.8156 C   0  0  0  0  0  0
  -30.0579  -19.0338  -24.2253 C   0  0  1  0  0  0
  -28.7541  -19.4252  -24.9653 C   0  0  2  0  0  0
  -29.6305  -20.5067  -25.6534 C   0  0  0  0  0  0
  -30.7392  -19.7976  -25.2648 N   0  0  0  0  0  0
  -32.3897  -19.9183  -25.4194 S   0  0  0  0  0  0
  -32.7749  -20.9404  -24.4349 O   0  0  0  0  0  0
  -32.5676  -20.3453  -26.8170 O   0  5  0  0  0  0
  -32.8910  -18.5658  -25.1362 O   0  0  0  0  0  0
  -29.4941  -21.5430  -26.2764 O   0  0  0  0  0  0
  -27.7300  -19.9520  -24.0649 N   0  0  0  0  0  0
  -26.7153  -20.7507  -24.4456 C   0  0  0  0  0  0
  -25.8098  -21.2438  -23.3124 C   0  0  0  0  0  0
  -26.0658  -20.6104  -22.0060 C   0  0  0  0  0  0
  -25.2975  -19.5578  -21.5677 C   0  0  0  0  0  0
  -25.8248  -18.9824  -20.0135 S   0  0  0  0  0  0
  -27.0780  -20.2149  -20.0255 C   0  0  0  0  0  0
  -27.9689  -20.3500  -18.9836 N   0  0  0  0  0  0
  -27.0890  -20.9688  -21.1230 N   0  0  0  0  0  0
  -24.8817  -22.1207  -23.3846 N   0  0  0  0  0  0
  -24.6652  -22.6407  -24.6758 O   0  0  0  0  0  0
  -23.4229  -23.3495  -24.7595 C   0  0  0  0  0  0
  -23.5689  -24.7871  -24.1934 C   0  0  0  0  0  0
  -24.3689  -25.5692  -24.7571 O   0  5  0  0  0  0
  -22.8026  -25.1492  -23.2690 O   0  0  0  0  0  0
  -23.1590  -23.4430  -26.2751 C   0  0  0  0  0  0
  -22.2419  -22.5850  -24.1029 C   0  0  0  0  0  0
  -26.5577  -21.0919  -25.6148 O   0  0  0  0  0  0
  -29.7758  -19.0403  -22.0639 H   0  0  0  0  0  0
  -31.4219  -19.3853  -22.5563 H   0  0  0  0  0  0
  -30.1816  -20.6240  -22.7138 H   0  0  0  0  0  0
  -30.2766  -17.9693  -24.3356 H   0  0  0  0  0  0
  -28.3921  -18.6324  -25.6252 H   0  0  0  0  0  0
  -27.8086  -19.6953  -23.0896 H   0  0  0  0  0  0
  -24.4681  -19.0780  -22.0670 H   0  0  0  0  0  0
  -28.9216  -20.6266  -19.2081 H   0  0  0  0  0  0
  -27.9651  -19.5927  -18.3058 H   0  0  0  0  0  0
  -22.2374  -23.9843  -26.4909 H   0  0  0  0  0  0
  -23.9687  -23.9440  -26.8024 H   0  0  0  0  0  0
  -23.0621  -22.4492  -26.7148 H   0  0  0  0  0  0
  -21.2895  -23.0688  -24.3231 H   0  0  0  0  0  0
  -22.1837  -21.5623  -24.4771 H   0  0  0  0  0  0
  -22.3290  -22.5305  -23.0166 H   0  0  0  0  0  0
  1  2  1  0  0  0
  1 29  1  0  0  0
  1 30  1  0  0  0
  1 31  1  0  0  0
  2  5  1  0  0  0
  2  3  1  0  0  0
  2 32  1  0  0  0
  3  4  1  0  0  0
  3 11  1  0  0  0
  3 33  1  0  0  0
  4  5  1  0  0  0
  4 10  2  0  0  0
  5  6  1  0  0  0
  6  7  2  0  0  0
  6  8  1  0  0  0
  6  9  2  0  0  0
 11 12  1  0  0  0
 11 34  1  0  0  0
 12 13  1  0  0  0
 12 28  2  0  0  0
 13 14  1  0  0  0
 13 20  2  3  0  0
 14 19  1  0  0  0
 14 15  2  0  0  0
 15 16  1  0  0  0
 15 35  1  0  0  0
 16 17  1  0  0  0
 17 18  1  0  0  0
 17 19  2  0  0  0
 18 36  1  0  0  0
 18 37  1  0  0  0
 20 21  1  0  0  0
 21 22  1  0  0  0
 22 23  1  0  0  0
 22 26  1  0  0  0
 22 27  1  0  0  0
 23 24  1  0  0  0
 23 25  2  0  0  0
 26 38  1  0  0  0
 26 39  1  0  0  0
 26 40  1  0  0  0
 27 41  1  0  0  0
 27 42  1  0  0  0
 27 43  1  0  0  0
M  CHG  2   8  -1  24  -1
M  END
> <s_m_entry_id>
27461

> <s_m_entry_name>
data_maestro.21

> <s_m_Source_Path>
C:\Users\olshana1\Git\GramNeg-Accumulation\Gram Negative Permeation - OmpF

> <s_m_Source_File>
data_maestro.csv

> <i_m_Source_File_Index>
21

> <s_m_job_name>
glide-dock_Nicaido_neutral

> <s_i_glide_gridfile>
3POX-grid

> <i_i_glide_lignum>
27

> <i_i_glide_rotatable_bonds>
8

> <r_i_docking_score>
-4.94337128408937

> <r_i_glide_ligand_efficiency>
-0.176548974431763

> <r_i_glide_ligand_efficiency_sa>
-0.536106668159978

> <r_i_glide_ligand_efficiency_ln>
-1.14107523605561

> <r_i_glide_gscore>
-4.94337128408937

> <r_i_glide_lipo>
0

> <r_i_glide_hbond>
-1.14456733985507

> <r_i_glide_metal>
0

> <r_i_glide_rewards>
-0.442688809805653

> <r_i_glide_evdw>
-23.9371089935303

> <r_i_glide_ecoul>
-13.8155193328857

> <r_i_glide_erotb>
0.635830109179744

> <r_i_glide_esite>
-0.722761893999016

> <r_i_glide_emodel>
-66.0421096972165

> <r_i_glide_energy>
-37.752628326416

> <r_i_glide_einternal>
3.85295629501343

> <i_i_glide_confnum>
11

> <i_i_glide_posenum>
285

> <r_i_glide_eff_state_penalty>
0

> <r_glide_res:A132_vdw>
-0.949164530962297

> <r_glide_res:A132_coul>
-50.4437702906053

> <r_glide_res:A132_hbond>
0

> <r_glide_res:A132_dist>
3.69333936456713

> <r_glide_res:A132_Eint>
-51.3929348215676

> <r_glide_res:A117_vdw>
-5.16623540869204

> <r_glide_res:A117_coul>
34.1900787491023

> <r_glide_res:A117_hbond>
0

> <r_glide_res:A117_dist>
2.8550993528777

> <r_glide_res:A117_Eint>
29.0238433404103

> <r_glide_res:A113_vdw>
-1.1918743214322

> <r_glide_res:A113_coul>
32.7542108744853

> <r_glide_res:A113_hbond>
-0.0867496574608555

> <r_glide_res:A113_dist>
2.17391651615231

> <r_glide_res:A113_Eint>
31.4755868955922

> <r_glide_res:A82_vdw>
-0.800286727692876

> <r_glide_res:A82_coul>
-66.3590205155902

> <r_glide_res:A82_hbond>
-0.16763177352998

> <r_glide_res:A82_dist>
1.93041672932591

> <r_glide_res:A82_Eint>
-67.326939016813

> <r_glide_res:A42_vdw>
-2.03087658911483

> <r_glide_res:A42_coul>
-67.941432768248

> <r_glide_res:A42_hbond>
-0.18852825195624

> <r_glide_res:A42_dist>
1.59770939213036

> <r_glide_res:A42_Eint>
-70.1608376093191

> <r_glide_res:A16_vdw>
-0.953047534383779

> <r_glide_res:A16_coul>
-65.2910767776851

> <r_glide_res:A16_hbond>
-0.190581480886583

> <r_glide_res:A16_dist>
2.04470111729911

> <r_glide_res:A16_Eint>
-66.4347057929555

> <s_m_source_file>
ligprep_Nicaido_neutral.maegz

> <i_m_source_file_index>
21

> <i_lp_mmshare_version>
58128

> <i_f3d_flags>
0

> <s_lp_Force_Field>
S-OPLS

> <r_lp_Energy>
50.237147

> <b_lp_Chiralities_Consistent>
1

> <s_lp_Variant>
Aztreonam-2

> <s_epik_input>
Tz1TKD1PKShbT0hdKU4xQyg9TylbQ0BASF0oW0NAQEhdMVtDSDNdKVtOSF1DKD1PKS9DKGMyW2NIXXNjKG4yKVtOSDJdKT1OL09DKFtDSDNdKShbQ0gzXSlDKD1PKVtPSF0=

> <s_epik_cmdline>
J2VwaWtfcHl0aG9uJywgJy1waHQnLCAnMC4wJywgJy1waCcsICc3LjQnLCAnLW50JywgJy1tYScsICc1MDAnLCAnLWltYWUnLCAnPGluZmlsZS5tYWU+JywgJy1vbWFlJywgJzxvdXRmaWxlLm1hZT4n

> <r_lp_tautomer_probability>
1

> <r_epik_Ionization_Penalty>
  0.0004

> <r_epik_Ionization_Penalty_Charging>
  0.0000

> <r_epik_Ionization_Penalty_Neutral>
  0.0004

> <r_epik_State_Penalty>
  0.0000

> <r_epik_Charging_Adjusted_Penalty>
4.45674509427693e-05

> <i_epik_Tot_Q>
-2

> <i_epik_Tot_abs_Q>
2

> <s_epik_Chemistry_Notes>
This compound has an imine and may undergo hydrolysis.

> <s_m_subgroup_title>
glide-dock_Nicaido_neutral_pv1

> <s_m_subgroupid>
glide-dock_Nicaido_neutral_pv1

> <b_m_subgroup_collapsed>
0

$$$$
Cephaloridine
                    3D
 Schrodinger Suite 2022-2.
 45 48  0  0  1  0            999 V2000
  -27.6648  -21.1491  -26.0133 O   0  0  0  0  0  0
  -27.2522  -20.7215  -24.9592 C   0  0  0  0  0  0
  -26.2493  -19.6722  -24.4236 C   0  0  2  0  0  0
  -24.9740  -19.5521  -25.1295 N   0  0  0  0  0  0
  -24.1709  -20.4975  -25.6453 C   0  0  0  0  0  0
  -22.8784  -19.9996  -26.2912 C   0  0  0  0  0  0
  -21.7193  -20.2273  -25.3750 C   0  0  0  0  0  0
  -21.3604  -19.4896  -24.2749 C   0  0  0  0  0  0
  -20.2032  -19.9940  -23.6131 C   0  0  0  0  0  0
  -19.6910  -21.1105  -24.2188 C   0  0  0  0  0  0
  -20.6241  -21.5642  -25.6179 S   0  0  0  0  0  0
  -24.4130  -21.7058  -25.6129 O   0  0  0  0  0  0
  -26.2043  -20.5912  -23.1865 C   0  0  2  0  0  0
  -27.5154  -21.0409  -23.6455 N   0  0  0  0  0  0
  -28.3222  -21.8626  -22.8529 C   0  0  0  0  0  0
  -28.9589  -23.1491  -23.5113 C   0  0  0  0  0  0
  -29.1686  -23.1493  -24.7450 O   0  5  0  0  0  0
  -29.1615  -24.1178  -22.7458 O   0  0  0  0  0  0
  -28.5940  -21.4240  -21.5975 C   0  0  0  0  0  0
  -29.6096  -22.0611  -20.6584 C   0  0  0  0  0  0
  -30.9925  -21.9328  -21.1955 N   0  3  0  0  0  0
  -31.7923  -23.0317  -21.2134 C   0  0  0  0  0  0
  -33.1210  -22.9487  -21.6778 C   0  0  0  0  0  0
  -33.6193  -21.7077  -22.1185 C   0  0  0  0  0  0
  -32.7765  -20.5799  -22.0824 C   0  0  0  0  0  0
  -31.4561  -20.7244  -21.6135 C   0  0  0  0  0  0
  -28.0122  -20.1067  -21.0866 C   0  0  0  0  0  0
  -26.2515  -19.9484  -21.4713 S   0  0  0  0  0  0
  -26.6932  -18.7006  -24.1981 H   0  0  0  0  0  0
  -24.6798  -18.5787  -25.2382 H   0  0  0  0  0  0
  -22.9622  -18.9391  -26.5346 H   0  0  0  0  0  0
  -22.7293  -20.5251  -27.2344 H   0  0  0  0  0  0
  -21.8847  -18.6112  -23.9259 H   0  0  0  0  0  0
  -19.7911  -19.5220  -22.7327 H   0  0  0  0  0  0
  -18.8225  -21.6861  -23.9350 H   0  0  0  0  0  0
  -25.4803  -21.4074  -23.2500 H   0  0  0  0  0  0
  -29.3801  -23.1140  -20.4986 H   0  0  0  0  0  0
  -29.5692  -21.5916  -19.6749 H   0  0  0  0  0  0
  -31.3615  -23.9531  -20.8508 H   0  0  0  0  0  0
  -33.7525  -23.8251  -21.6791 H   0  0  0  0  0  0
  -34.6387  -21.6183  -22.4664 H   0  0  0  0  0  0
  -33.1414  -19.6099  -22.3897 H   0  0  0  0  0  0
  -30.7798  -19.8880  -21.5253 H   0  0  0  0  0  0
  -28.5488  -19.2733  -21.5404 H   0  0  0  0  0  0
  -28.1237  -20.0024  -20.0068 H   0  0  0  0  0  0
  1  2  2  0  0  0
  2 14  1  0  0  0
  2  3  1  0  0  0
  3  4  1  0  0  0
  3 13  1  0  0  0
  3 29  1  0  0  0
  4  5  1  0  0  0
  4 30  1  0  0  0
  5  6  1  0  0  0
  5 12  2  0  0  0
  6  7  1  0  0  0
  6 31  1  0  0  0
  6 32  1  0  0  0
  7 11  1  0  0  0
  7  8  2  0  0  0
  8  9  1  0  0  0
  8 33  1  0  0  0
  9 10  2  0  0  0
  9 34  1  0  0  0
 10 11  1  0  0  0
 10 35  1  0  0  0
 13 28  1  0  0  0
 13 14  1  0  0  0
 13 36  1  0  0  0
 14 15  1  0  0  0
 15 16  1  0  0  0
 15 19  2  0  0  0
 16 17  1  0  0  0
 16 18  2  0  0  0
 19 20  1  0  0  0
 19 27  1  0  0  0
 20 21  1  0  0  0
 20 37  1  0  0  0
 20 38  1  0  0  0
 21 26  1  0  0  0
 21 22  2  0  0  0
 22 23  1  0  0  0
 22 39  1  0  0  0
 23 24  2  0  0  0
 23 40  1  0  0  0
 24 25  1  0  0  0
 24 41  1  0  0  0
 25 26  2  0  0  0
 25 42  1  0  0  0
 26 43  1  0  0  0
 27 28  1  0  0  0
 27 44  1  0  0  0
 27 45  1  0  0  0
M  CHG  2  17  -1  21   1
M  END
> <s_m_entry_id>
27462

> <s_m_entry_name>
data_maestro.13

> <s_m_Source_Path>
C:\Users\olshana1\Git\GramNeg-Accumulation\Gram Negative Permeation - OmpF

> <s_m_Source_File>
data_maestro.csv

> <i_m_Source_File_Index>
13

> <s_m_job_name>
glide-dock_Nicaido_neutral

> <s_i_glide_gridfile>
3POX-grid

> <i_i_glide_lignum>
18

> <i_i_glide_rotatable_bonds>
7

> <r_i_docking_score>
-4.93876840348146

> <r_i_glide_ligand_efficiency>
-0.176384585838624

> <r_i_glide_ligand_efficiency_sa>
-0.535607487571503

> <r_i_glide_ligand_efficiency_ln>
-1.14001275606486

> <r_i_glide_gscore>
-4.93876840348146

> <r_i_glide_lipo>
-0.0378815011731656

> <r_i_glide_hbond>
-0.704252954987908

> <r_i_glide_metal>
0

> <r_i_glide_rewards>
-0.576217983910438

> <r_i_glide_evdw>
-24.3033599853516

> <r_i_glide_ecoul>
-16.2839851379395

> <r_i_glide_erotb>
0.571951339556603

> <r_i_glide_esite>
-0.534601533008059

> <r_i_glide_emodel>
-62.269135637125

> <r_i_glide_energy>
-40.587345123291

> <r_i_glide_einternal>
8.40896797180176

> <i_i_glide_confnum>
57

> <i_i_glide_posenum>
251

> <r_i_glide_eff_state_penalty>
0

> <r_glide_res:A132_vdw>
-1.19492258010142

> <r_glide_res:A132_coul>
-7.28537985346046

> <r_glide_res:A132_hbond>
0

> <r_glide_res:A132_dist>
2.82810717760385

> <r_glide_res:A132_Eint>
-8.48030243356188

> <r_glide_res:A117_vdw>
-3.30304524955073

> <r_glide_res:A117_coul>
-11.3954803809696

> <r_glide_res:A117_hbond>
-0.16

> <r_glide_res:A117_dist>
1.76413171128546

> <r_glide_res:A117_Eint>
-14.8585256305203

> <r_glide_res:A113_vdw>
-3.36920306901388

> <r_glide_res:A113_coul>
-26.2650165839338

> <r_glide_res:A113_hbond>
0

> <r_glide_res:A113_dist>
2.30554309275985

> <r_glide_res:A113_Eint>
-29.6342196529476

> <r_glide_res:A82_vdw>
0.172490465039558

> <r_glide_res:A82_coul>
-25.0212889102405

> <r_glide_res:A82_hbond>
-0.215856780138481

> <r_glide_res:A82_dist>
1.77325969625901

> <r_glide_res:A82_Eint>
-25.0646552253394

> <r_glide_res:A42_vdw>
-1.00864845047168

> <r_glide_res:A42_coul>
-31.8571269427369

> <r_glide_res:A42_hbond>
-0.328396174849427

> <r_glide_res:A42_dist>
1.90166581570759

> <r_glide_res:A42_Eint>
-33.194171568058

> <r_glide_res:A16_vdw>
-0.592634273890592

> <r_glide_res:A16_coul>
-11.8301897595464

> <r_glide_res:A16_hbond>
0

> <r_glide_res:A16_dist>
3.36777623921306

> <r_glide_res:A16_Eint>
-12.422824033437

> <s_m_source_file>
ligprep_Nicaido_neutral.maegz

> <i_m_source_file_index>
13

> <i_lp_mmshare_version>
58128

> <i_f3d_flags>
0

> <s_lp_Force_Field>
S-OPLS

> <r_lp_Energy>
50.740529

> <b_lp_Chiralities_Consistent>
1

> <s_lp_Variant>
Cephaloridine-1

> <s_epik_input>
czFbY0hdW2NIXVtjSF1jMVtDSDJdQyg9TylbTkhdW0NASF0yQyg9TylOKFtDQEBIXTIzKUMoQyg9TylbT0hdKT1DKFtDSDJdUzMpW0NIMl1bbitdNFtjSF1bY0hdW2NIXVtjSF1bY0hdNA==

> <s_epik_cmdline>
J2VwaWtfcHl0aG9uJywgJy1waHQnLCAnMC4wJywgJy1waCcsICc3LjQnLCAnLW50JywgJy1tYScsICc1MDAnLCAnLWltYWUnLCAnPGluZmlsZS5tYWU+JywgJy1vbWFlJywgJzxvdXRmaWxlLm1hZT4n

> <r_lp_tautomer_probability>
1

> <r_epik_Ionization_Penalty>
  0.0000

> <r_epik_Ionization_Penalty_Charging>
  0.0000

> <r_epik_Ionization_Penalty_Neutral>
  0.0000

> <r_epik_State_Penalty>
  0.0000

> <r_epik_Charging_Adjusted_Penalty>
1.62498989321064e-05

> <i_epik_Tot_Q>
0

> <i_epik_Tot_abs_Q>
2

> <s_epik_Chemistry_Notes>
This compound contains an acetal/aminal-like group ( X-CH(R)-Y where X, Y are N, S, or O) that may be acid/base labile, releasing an aldehyde.

> <s_m_subgroup_title>
glide-dock_Nicaido_neutral_pv1

> <s_m_subgroupid>
glide-dock_Nicaido_neutral_pv1

> <b_m_subgroup_collapsed>
0

$$$$
Cyclacillin
                    3D
 Schrodinger Suite 2022-2.
 46 48  0  0  1  0            999 V2000
  -22.1814  -22.9791  -22.3873 C   0  0  0  0  0  0
  -22.7429  -22.2737  -23.6405 C   0  0  0  0  0  0
  -23.9895  -22.9867  -24.2685 C   0  0  2  0  0  0
  -25.1252  -22.3003  -23.6672 N   0  0  0  0  0  0
  -25.1167  -20.8822  -23.3562 C   0  0  2  0  0  0
  -23.3355  -20.6222  -23.0917 S   0  0  0  0  0  0
  -26.1478  -21.1752  -22.2557 C   0  0  2  0  0  0
  -26.2471  -22.5671  -22.9188 C   0  0  0  0  0  0
  -26.9509  -23.5496  -22.8134 O   0  0  0  0  0  0
  -27.3610  -20.3595  -22.3681 N   0  0  0  0  0  0
  -28.5016  -20.6164  -21.7005 C   0  0  0  0  0  0
  -29.7368  -19.7061  -21.9356 C   0  0  0  0  0  0
  -29.6861  -18.9249  -23.2801 C   0  0  0  0  0  0
  -29.8373  -19.8271  -24.5217 C   0  0  0  0  0  0
  -31.1277  -20.6566  -24.4506 C   0  0  0  0  0  0
  -31.2036  -21.4564  -23.1416 C   0  0  0  0  0  0
  -31.0533  -20.5316  -21.9183 C   0  0  0  0  0  0
  -29.7713  -18.7496  -20.8134 N   0  3  0  0  0  0
  -28.5806  -21.5551  -20.9093 O   0  0  0  0  0  0
  -23.9791  -24.5341  -24.2021 C   0  0  0  0  0  0
  -23.5742  -25.1495  -25.2133 O   0  5  0  0  0  0
  -24.3621  -25.1057  -23.1575 O   0  0  0  0  0  0
  -21.6257  -22.1062  -24.6854 C   0  0  0  0  0  0
  -21.7422  -23.9481  -22.6242 H   0  0  0  0  0  0
  -22.9607  -23.1376  -21.6407 H   0  0  0  0  0  0
  -21.3999  -22.3799  -21.9190 H   0  0  0  0  0  0
  -24.0436  -22.7238  -25.3258 H   0  0  0  0  0  0
  -25.4899  -20.2651  -24.1769 H   0  0  0  0  0  0
  -25.7052  -21.1775  -21.2583 H   0  0  0  0  0  0
  -27.3192  -19.5459  -22.9678 H   0  0  0  0  0  0
  -30.4871  -18.1832  -23.2956 H   0  0  0  0  0  0
  -28.7680  -18.3494  -23.3667 H   0  0  0  0  0  0
  -29.8431  -19.2106  -25.4213 H   0  0  0  0  0  0
  -28.9783  -20.4917  -24.6161 H   0  0  0  0  0  0
  -31.9905  -19.9922  -24.5193 H   0  0  0  0  0  0
  -31.1891  -21.3312  -25.3044 H   0  0  0  0  0  0
  -32.1567  -21.9833  -23.0866 H   0  0  0  0  0  0
  -30.4299  -22.2248  -23.1290 H   0  0  0  0  0  0
  -31.1283  -21.1243  -21.0038 H   0  0  0  0  0  0
  -31.9078  -19.8534  -21.8876 H   0  0  0  0  0  0
  -30.4738  -18.0454  -20.9786 H   0  0  0  0  0  0
  -30.0278  -19.2398  -19.9441 H   0  0  0  0  0  0
  -21.2734  -23.0721  -25.0488 H   0  0  0  0  0  0
  -21.9716  -21.5362  -25.5484 H   0  0  0  0  0  0
  -20.7697  -21.5751  -24.2683 H   0  0  0  0  0  0
  -28.8801  -18.2893  -20.6870 H   0  0  0  0  0  0
  1  2  1  0  0  0
  1 24  1  0  0  0
  1 25  1  0  0  0
  1 26  1  0  0  0
  2  6  1  0  0  0
  2  3  1  0  0  0
  2 23  1  0  0  0
  3  4  1  0  0  0
  3 20  1  0  0  0
  3 27  1  0  0  0
  4  8  1  0  0  0
  4  5  1  0  0  0
  5  6  1  0  0  0
  5  7  1  0  0  0
  5 28  1  0  0  0
  7  8  1  0  0  0
  7 10  1  0  0  0
  7 29  1  0  0  0
  8  9  2  0  0  0
 10 11  1  0  0  0
 10 30  1  0  0  0
 11 12  1  0  0  0
 11 19  2  0  0  0
 12 17  1  0  0  0
 12 13  1  0  0  0
 12 18  1  0  0  0
 13 14  1  0  0  0
 13 31  1  0  0  0
 13 32  1  0  0  0
 14 15  1  0  0  0
 14 33  1  0  0  0
 14 34  1  0  0  0
 15 16  1  0  0  0
 15 35  1  0  0  0
 15 36  1  0  0  0
 16 17  1  0  0  0
 16 37  1  0  0  0
 16 38  1  0  0  0
 17 39  1  0  0  0
 17 40  1  0  0  0
 18 41  1  0  0  0
 18 42  1  0  0  0
 18 46  1  0  0  0
 20 21  1  0  0  0
 20 22  2  0  0  0
 23 43  1  0  0  0
 23 44  1  0  0  0
 23 45  1  0  0  0
M  CHG  2  18   1  21  -1
M  END
> <s_m_entry_id>
27463

> <s_m_entry_name>
data_maestro.19

> <s_m_Source_Path>
C:\Users\olshana1\Git\GramNeg-Accumulation\Gram Negative Permeation - OmpF

> <s_m_Source_File>
data_maestro.csv

> <i_m_Source_File_Index>
19

> <s_m_job_name>
glide-dock_Nicaido_neutral

> <s_i_glide_gridfile>
3POX-grid

> <i_i_glide_lignum>
24

> <i_i_glide_rotatable_bonds>
4

> <r_i_docking_score>
-4.93015763105064

> <r_i_glide_ligand_efficiency>
-0.214354679610897

> <r_i_glide_ligand_efficiency_sa>
-0.609596194684964

> <r_i_glide_ligand_efficiency_ln>
-1.19215681938584

> <r_i_glide_gscore>
-5.13345763105064

> <r_i_glide_lipo>
0

> <r_i_glide_hbond>
-0.381212737916015

> <r_i_glide_metal>
0

> <r_i_glide_rewards>
-1.25861601112608

> <r_i_glide_evdw>
-19.352424621582

> <r_i_glide_ecoul>
-17.2260589599609

> <r_i_glide_erotb>
0.487675558125352

> <r_i_glide_esite>
-0.429774365060653

> <r_i_glide_emodel>
-64.9828745491219

> <r_i_glide_energy>
-36.578483581543

> <r_i_glide_einternal>
1.78802156448364

> <i_i_glide_confnum>
9

> <i_i_glide_posenum>
63

> <r_i_glide_eff_state_penalty>
0.2033

> <r_glide_res:A132_vdw>
-1.38820973195614

> <r_glide_res:A132_coul>
-20.7702973101941

> <r_glide_res:A132_hbond>
0

> <r_glide_res:A132_dist>
2.82187808464211

> <r_glide_res:A132_Eint>
-22.1585070421503

> <r_glide_res:A117_vdw>
-3.30694822971737

> <r_glide_res:A117_coul>
-12.8497343887442

> <r_glide_res:A117_hbond>
0

> <r_glide_res:A117_dist>
2.33804047860227

> <r_glide_res:A117_Eint>
-16.1566826184616

> <r_glide_res:A113_vdw>
-0.29833722235102

> <r_glide_res:A113_coul>
-30.9452250681473

> <r_glide_res:A113_hbond>
-0.2

> <r_glide_res:A113_dist>
1.67416998231745

> <r_glide_res:A113_Eint>
-31.4435622904983

> <r_glide_res:A82_vdw>
-1.40939784989832

> <r_glide_res:A82_coul>
-27.6409057136984

> <r_glide_res:A82_hbond>
-0.16

> <r_glide_res:A82_dist>
1.91846146379778

> <r_glide_res:A82_Eint>
-29.2103035635967

> <r_glide_res:A42_vdw>
-2.21308510994832

> <r_glide_res:A42_coul>
-12.4689968198395

> <r_glide_res:A42_hbond>
0

> <r_glide_res:A42_dist>
2.47005122524595

> <r_glide_res:A42_Eint>
-14.6820819297878

> <r_glide_res:A16_vdw>
-0.422245228787271

> <r_glide_res:A16_coul>
3.53034208186876

> <r_glide_res:A16_hbond>
0

> <r_glide_res:A16_dist>
2.95929042399407

> <r_glide_res:A16_Eint>
3.10809685308149

> <s_m_source_file>
ligprep_Nicaido_neutral.maegz

> <i_m_source_file_index>
19

> <i_lp_mmshare_version>
58128

> <i_f3d_flags>
0

> <s_lp_Force_Field>
S-OPLS

> <r_lp_Energy>
30.580191

> <b_lp_Chiralities_Consistent>
1

> <s_lp_Variant>
Cyclacillin-1

> <s_epik_input>
W09IXUMoPU8pW0NAQEhdMUMoW0NIM10pKFtDSDNdKVNbQ0BASF0oTjEyKVtDQEhdKEMyPU8pW05IXUMoPU8pQzMoW05IMl0pW0NIMl1bQ0gyXVtDSDJdW0NIMl1bQ0gyXTM=

> <s_epik_cmdline>
J2VwaWtfcHl0aG9uJywgJy1waHQnLCAnMC4wJywgJy1waCcsICc3LjQnLCAnLW50JywgJy1tYScsICc1MDAnLCAnLWltYWUnLCAnPGluZmlsZS5tYWU+JywgJy1vbWFlJywgJzxvdXRmaWxlLm1hZT4n

> <r_epik_Ionization_Penalty>
  0.2033

> <r_epik_Ionization_Penalty_Charging>
  0.2033

> <r_epik_Ionization_Penalty_Neutral>
  0.0000

> <r_epik_State_Penalty>
  0.2033

> <r_epik_Charging_Adjusted_Penalty>
0.406545099244061

> <i_epik_Tot_Q>
0

> <i_epik_Tot_abs_Q>
2

> <s_epik_Chemistry_Notes>
This compound contains an acetal/aminal-like group ( X-CH(R)-Y where X, Y are N, S, or O) that may be acid/base labile, releasing an aldehyde.

> <s_m_subgroup_title>
glide-dock_Nicaido_neutral_pv1

> <s_m_subgroupid>
glide-dock_Nicaido_neutral_pv1

> <b_m_subgroup_collapsed>
0

$$$$
Ceftriaxone
                    3D
 Schrodinger Suite 2022-2.
 52 55  0  0  1  0            999 V2000
  -22.5713  -22.5828  -21.0259 C   0  0  0  0  0  0
  -23.4901  -23.2014  -21.9738 N   0  0  0  0  0  0
  -24.0779  -22.4177  -23.0047 C   0  0  0  0  0  0
  -24.5251  -20.7169  -22.4920 S   0  0  0  0  0  0
  -25.5690  -20.9816  -21.0214 C   0  0  0  0  0  0
  -27.0596  -21.0528  -21.3520 C   0  0  0  0  0  0
  -27.7540  -22.2153  -21.4688 C   0  0  0  0  0  0
  -29.1309  -22.2560  -21.7423 N   0  0  0  0  0  0
  -29.9989  -21.1272  -21.4852 C   0  0  2  0  0  0
  -31.1660  -21.9838  -22.0182 C   0  0  2  0  0  0
  -30.1447  -23.1503  -22.0401 C   0  0  0  0  0  0
  -30.1542  -24.3491  -22.2352 O   0  0  0  0  0  0
  -31.5915  -21.5302  -23.3400 N   0  0  0  0  0  0
  -32.2590  -22.2594  -24.2509 C   0  0  0  0  0  0
  -32.5039  -21.5506  -25.5707 C   0  0  0  0  0  0
  -32.1038  -20.1195  -25.6198 C   0  0  0  0  0  0
  -32.9464  -19.1318  -25.1665 C   0  0  0  0  0  0
  -32.2439  -17.5496  -25.3436 S   0  0  0  0  0  0
  -30.8167  -18.3025  -26.0379 C   0  0  0  0  0  0
  -29.7444  -17.5496  -26.4717 N   0  0  0  0  0  0
  -30.8801  -19.6335  -26.0986 N   0  0  0  0  0  0
  -33.0150  -22.1746  -26.5576 N   0  0  0  0  0  0
  -33.1694  -21.3672  -27.6952 O   0  0  0  0  0  0
  -33.9831  -22.0699  -28.6202 C   0  0  0  0  0  0
  -32.6302  -23.4180  -24.0609 O   0  0  0  0  0  0
  -29.3118  -19.6940  -22.3709 S   0  0  0  0  0  0
  -27.6946  -19.6757  -21.5436 C   0  0  0  0  0  0
  -27.0750  -23.6059  -21.3947 C   0  0  0  0  0  0
  -26.5890  -23.9497  -20.2977 O   0  5  0  0  0  0
  -27.1696  -24.3260  -22.4134 O   0  0  0  0  0  0
  -24.2722  -22.8471  -24.2198 N   0  0  0  0  0  0
  -24.0103  -24.1895  -24.4849 C   0  0  0  0  0  0
  -23.8313  -25.1495  -23.2699 C   0  0  0  0  0  0
  -23.9690  -26.3496  -23.5042 O   0  0  0  0  0  0
  -23.5555  -24.6215  -22.0529 N   0  5  0  0  0  0
  -23.9688  -24.6785  -25.6133 O   0  0  0  0  0  0
  -23.0942  -22.2546  -20.1292 H   0  0  0  0  0  0
  -21.8084  -23.2980  -20.7183 H   0  0  0  0  0  0
  -22.0563  -21.7262  -21.4623 H   0  0  0  0  0  0
  -25.4157  -20.1377  -20.3481 H   0  0  0  0  0  0
  -25.2362  -21.8487  -20.4586 H   0  0  0  0  0  0
  -30.0503  -20.9451  -20.4134 H   0  0  0  0  0  0
  -31.9763  -22.0812  -21.2945 H   0  0  0  0  0  0
  -31.2975  -20.5942  -23.5857 H   0  0  0  0  0  0
  -33.9349  -19.2347  -24.7427 H   0  0  0  0  0  0
  -28.8166  -17.9437  -26.4157 H   0  0  0  0  0  0
  -29.7621  -16.5528  -26.2735 H   0  0  0  0  0  0
  -34.1294  -21.4680  -29.5180 H   0  0  0  0  0  0
  -33.5261  -23.0143  -28.9203 H   0  0  0  0  0  0
  -34.9681  -22.2789  -28.1993 H   0  0  0  0  0  0
  -27.7961  -19.1911  -20.5716 H   0  0  0  0  0  0
  -27.0216  -19.0680  -22.1443 H   0  0  0  0  0  0
  1  2  1  0  0  0
  1 37  1  0  0  0
  1 38  1  0  0  0
  1 39  1  0  0  0
  2 35  1  0  0  0
  2  3  1  0  0  0
  3  4  1  0  0  0
  3 31  2  0  0  0
  4  5  1  0  0  0
  5  6  1  0  0  0
  5 40  1  0  0  0
  5 41  1  0  0  0
  6 27  1  0  0  0
  6  7  2  0  0  0
  7  8  1  0  0  0
  7 28  1  0  0  0
  8 11  1  0  0  0
  8  9  1  0  0  0
  9 10  1  0  0  0
  9 26  1  0  0  0
  9 42  1  0  0  0
 10 11  1  0  0  0
 10 13  1  0  0  0
 10 43  1  0  0  0
 11 12  2  0  0  0
 13 14  1  0  0  0
 13 44  1  0  0  0
 14 15  1  0  0  0
 14 25  2  0  0  0
 15 16  1  0  0  0
 15 22  2  3  0  0
 16 21  1  0  0  0
 16 17  2  0  0  0
 17 18  1  0  0  0
 17 45  1  0  0  0
 18 19  1  0  0  0
 19 20  1  0  0  0
 19 21  2  0  0  0
 20 46  1  0  0  0
 20 47  1  0  0  0
 22 23  1  0  0  0
 23 24  1  0  0  0
 24 48  1  0  0  0
 24 49  1  0  0  0
 24 50  1  0  0  0
 26 27  1  0  0  0
 27 51  1  0  0  0
 27 52  1  0  0  0
 28 29  1  0  0  0
 28 30  2  0  0  0
 31 32  1  0  0  0
 32 33  1  0  0  0
 32 36  2  0  0  0
 33 34  2  0  0  0
 33 35  1  0  0  0
M  CHG  2  29  -1  35  -1
M  END
> <s_m_entry_id>
27464

> <s_m_entry_name>
data_maestro.22

> <s_m_Source_Path>
C:\Users\olshana1\Git\GramNeg-Accumulation\Gram Negative Permeation - OmpF

> <s_m_Source_File>
data_maestro.csv

> <i_m_Source_File_Index>
22

> <s_m_job_name>
glide-dock_Nicaido_neutral

> <s_i_glide_gridfile>
3POX-grid

> <i_i_glide_lignum>
28

> <i_i_glide_rotatable_bonds>
9

> <r_i_docking_score>
-4.92960223785179

> <r_i_glide_ligand_efficiency>
-0.136933395495883

> <r_i_glide_ligand_efficiency_sa>
-0.452144109331432

> <r_i_glide_ligand_efficiency_ln>
-1.07550602583792

> <r_i_glide_gscore>
-4.92960223785179

> <r_i_glide_lipo>
0

> <r_i_glide_hbond>
-0.931674600680348

> <r_i_glide_metal>
0

> <r_i_glide_rewards>
0.00496128368038514

> <r_i_glide_evdw>
-28.9907169342041

> <r_i_glide_ecoul>
-15.5272922515869

> <r_i_glide_erotb>
0.472124986767549

> <r_i_glide_esite>
-0.696384223171132

> <r_i_glide_emodel>
-72.4117769758446

> <r_i_glide_energy>
-44.518009185791

> <r_i_glide_einternal>
12.547571182251

> <i_i_glide_confnum>
238

> <i_i_glide_posenum>
336

> <r_i_glide_eff_state_penalty>
0

> <r_glide_res:A132_vdw>
-1.49507583669386

> <r_glide_res:A132_coul>
-89.171032799773

> <r_glide_res:A132_hbond>
-0.25362544715329

> <r_glide_res:A132_dist>
1.98088356346447

> <r_glide_res:A132_Eint>
-90.9197340836201

> <r_glide_res:A117_vdw>
-3.67073511943354

> <r_glide_res:A117_coul>
36.9588649591423

> <r_glide_res:A117_hbond>
0

> <r_glide_res:A117_dist>
2.31640518980477

> <r_glide_res:A117_Eint>
33.2881298397088

> <r_glide_res:A113_vdw>
-2.83062764971566

> <r_glide_res:A113_coul>
34.2308011918071

> <r_glide_res:A113_hbond>
0

> <r_glide_res:A113_dist>
2.2187186712427

> <r_glide_res:A113_Eint>
31.4001735420914

> <r_glide_res:A82_vdw>
1.90965538397233

> <r_glide_res:A82_coul>
-88.9444714593927

> <r_glide_res:A82_hbond>
-0.333658185203838

> <r_glide_res:A82_dist>
1.54731637040768

> <r_glide_res:A82_Eint>
-87.3684742606242

> <r_glide_res:A42_vdw>
-2.10508947000913

> <r_glide_res:A42_coul>
-59.8633783266241

> <r_glide_res:A42_hbond>
-0.0243909683232207

> <r_glide_res:A42_dist>
2.35444590686793

> <r_glide_res:A42_Eint>
-61.9928587649565

> <r_glide_res:A16_vdw>
-1.33551184141192

> <r_glide_res:A16_coul>
-47.2376452518303

> <r_glide_res:A16_hbond>
0

> <r_glide_res:A16_dist>
1.8214284449432

> <r_glide_res:A16_Eint>
-48.5731570932422

> <s_m_source_file>
ligprep_Nicaido_neutral.maegz

> <i_m_source_file_index>
22

> <i_lp_mmshare_version>
58128

> <i_f3d_flags>
0

> <s_lp_Force_Field>
S-OPLS

> <r_lp_Energy>
109.903222

> <b_lp_Chiralities_Consistent>
1

> <s_lp_Variant>
Ceftriaxone-1

> <s_epik_input>
W09IXWMobjEpYyg9TyluYyhuMVtDSDNdKVNbQ0gyXUMoPUMyQyg9TylbT0hdKVtDSDJdU1tDQEhdKE4yMylbQ0BIXShDMz1PKVtOSF1DKD1PKS9DKD1OL09bQ0gzXSljNFtjSF1zYyhuNClbTkgyXQ==

> <s_epik_cmdline>
J2VwaWtfcHl0aG9uJywgJy1waHQnLCAnMC4wJywgJy1waCcsICc3LjQnLCAnLW50JywgJy1tYScsICc1MDAnLCAnLWltYWUnLCAnPGluZmlsZS5tYWU+JywgJy1vbWFlJywgJzxvdXRmaWxlLm1hZT4n

> <r_lp_tautomer_probability>
1

> <r_epik_Ionization_Penalty>
  0.0014

> <r_epik_Ionization_Penalty_Charging>
  0.0010

> <r_epik_Ionization_Penalty_Neutral>
  0.0004

> <r_epik_State_Penalty>
  0.0000

> <r_epik_Charging_Adjusted_Penalty>
0.000994184415634904

> <i_epik_Tot_Q>
-2

> <i_epik_Tot_abs_Q>
2

> <s_epik_Chemistry_Notes>
This compound has an imine and may undergo hydrolysis. This compound contains an acetal/aminal-like group ( X-CH(R)-Y where X, Y are N, S, or O) that may be acid/base labile, releasing an aldehyde.

> <s_m_subgroup_title>
glide-dock_Nicaido_neutral_pv1

> <s_m_subgroupid>
glide-dock_Nicaido_neutral_pv1

> <b_m_subgroup_collapsed>
0

$$$$
Imipenem
                    3D
 Schrodinger Suite 2022-2.
 37 38  0  0  1  0            999 V2000
  -22.4419  -18.7882  -26.7015 C   0  0  0  0  0  0
  -22.4860  -20.3206  -26.6756 C   0  0  2  0  0  0
  -23.0459  -20.8743  -25.3580 C   0  0  1  0  0  0
  -24.4951  -20.5491  -24.9148 C   0  0  2  0  0  0
  -24.8832  -19.9190  -23.5653 C   0  0  0  0  0  0
  -25.2555  -21.1073  -22.7102 C   0  0  0  0  0  0
  -25.6675  -20.9113  -20.9923 S   0  0  0  0  0  0
  -26.6959  -19.4158  -20.9052 C   0  0  0  0  0  0
  -28.0417  -19.6063  -21.6282 C   0  0  0  0  0  0
  -29.1772  -19.1495  -20.8132 N   0  3  0  0  0  0
  -30.1241  -18.2490  -21.1330 C   0  0  0  0  0  0
  -30.1531  -17.5499  -22.2787 N   0  0  0  0  0  0
  -25.0724  -22.2612  -23.3649 C   0  0  0  0  0  0
  -24.6212  -21.9779  -24.6542 N   0  0  0  0  0  0
  -23.5689  -22.3342  -25.4716 C   0  0  0  0  0  0
  -23.3044  -23.3503  -26.0786 O   0  0  0  0  0  0
  -25.1683  -23.7336  -22.8179 C   0  0  0  0  0  0
  -25.9819  -23.9496  -21.8906 O   0  5  0  0  0  0
  -24.4876  -24.6047  -23.4076 O   0  0  0  0  0  0
  -21.1683  -20.7962  -26.8791 O   0  0  0  0  0  0
  -23.4465  -18.3674  -26.6686 H   0  0  0  0  0  0
  -21.9689  -18.4230  -27.6122 H   0  0  0  0  0  0
  -21.8840  -18.3885  -25.8541 H   0  0  0  0  0  0
  -23.0882  -20.6601  -27.5193 H   0  0  0  0  0  0
  -22.3575  -20.7264  -24.5235 H   0  0  0  0  0  0
  -25.1373  -20.2511  -25.7478 H   0  0  0  0  0  0
  -24.0520  -19.3733  -23.1174 H   0  0  0  0  0  0
  -25.7238  -19.2327  -23.6729 H   0  0  0  0  0  0
  -26.8506  -19.1794  -19.8510 H   0  0  0  0  0  0
  -26.1434  -18.5763  -21.3272 H   0  0  0  0  0  0
  -28.0271  -19.1129  -22.5987 H   0  0  0  0  0  0
  -28.2087  -20.6644  -21.8311 H   0  0  0  0  0  0
  -30.9189  -18.0847  -20.4137 H   0  0  0  0  0  0
  -29.3423  -17.5497  -22.8820 H   0  0  0  0  0  0
  -30.8773  -16.8422  -22.4114 H   0  0  0  0  0  0
  -21.2026  -21.7133  -27.1168 H   0  0  0  0  0  0
  -29.3347  -19.6094  -19.9165 H   0  0  0  0  0  0
  1  2  1  0  0  0
  1 21  1  0  0  0
  1 22  1  0  0  0
  1 23  1  0  0  0
  2  3  1  0  0  0
  2 20  1  0  0  0
  2 24  1  0  0  0
  3 15  1  0  0  0
  3  4  1  0  0  0
  3 25  1  0  0  0
  4 14  1  0  0  0
  4  5  1  0  0  0
  4 26  1  0  0  0
  5  6  1  0  0  0
  5 27  1  0  0  0
  5 28  1  0  0  0
  6  7  1  0  0  0
  6 13  2  0  0  0
  7  8  1  0  0  0
  8  9  1  0  0  0
  8 29  1  0  0  0
  8 30  1  0  0  0
  9 10  1  0  0  0
  9 31  1  0  0  0
  9 32  1  0  0  0
 10 11  2  3  0  0
 10 37  1  0  0  0
 11 12  1  0  0  0
 11 33  1  0  0  0
 12 34  1  0  0  0
 12 35  1  0  0  0
 13 14  1  0  0  0
 13 17  1  0  0  0
 14 15  1  0  0  0
 15 16  2  0  0  0
 17 18  1  0  0  0
 17 19  2  0  0  0
 20 36  1  0  0  0
M  CHG  2  10   1  18  -1
M  END
> <s_m_entry_id>
27465

> <s_m_entry_name>
data_maestro.12

> <s_m_Source_Path>
C:\Users\olshana1\Git\GramNeg-Accumulation\Gram Negative Permeation - OmpF

> <s_m_Source_File>
data_maestro.csv

> <i_m_Source_File_Index>
12

> <s_m_job_name>
glide-dock_Nicaido_neutral

> <s_i_glide_gridfile>
3POX-grid

> <i_i_glide_lignum>
17

> <i_i_glide_rotatable_bonds>
7

> <r_i_docking_score>
-4.92891983622568

> <r_i_glide_ligand_efficiency>
-0.246445991811284

> <r_i_glide_ligand_efficiency_sa>
-0.668957341043747

> <r_i_glide_ligand_efficiency_ln>
-1.23354606835099

> <r_i_glide_gscore>
-4.92891983622568

> <r_i_glide_lipo>
-0.0902505337514124

> <r_i_glide_hbond>
-0.32311046831627

> <r_i_glide_metal>
0

> <r_i_glide_rewards>
-1.36808809090909

> <r_i_glide_evdw>
-19.0651702880859

> <r_i_glide_ecoul>
-18.6004104614258

> <r_i_glide_erotb>
1.02473259195513

> <r_i_glide_esite>
-0.428883251585867

> <r_i_glide_emodel>
-63.7165186259873

> <r_i_glide_energy>
-37.6655807495117

> <r_i_glide_einternal>
4.9703950881958

> <i_i_glide_confnum>
149

> <i_i_glide_posenum>
275

> <r_i_glide_eff_state_penalty>
0

> <r_glide_res:A132_vdw>
-0.368482080297722

> <r_glide_res:A132_coul>
-24.821484590983

> <r_glide_res:A132_hbond>
-0.157965061177233

> <r_glide_res:A132_dist>
2.02659915109012

> <r_glide_res:A132_Eint>
-25.3479317324579

> <r_glide_res:A117_vdw>
-3.14825619862548

> <r_glide_res:A117_coul>
-14.6733087922944

> <r_glide_res:A117_hbond>
0

> <r_glide_res:A117_dist>
2.24920122084632

> <r_glide_res:A117_Eint>
-17.8215649909199

> <r_glide_res:A113_vdw>
-0.47979265452402

> <r_glide_res:A113_coul>
-23.7489453306434

> <r_glide_res:A113_hbond>
-0.146881716535998

> <r_glide_res:A113_dist>
2.01699237054219

> <r_glide_res:A113_Eint>
-24.3756197017034

> <r_glide_res:A82_vdw>
-1.02149440926017

> <r_glide_res:A82_coul>
-22.6180813276656

> <r_glide_res:A82_hbond>
0

> <r_glide_res:A82_dist>
2.50238226399504

> <r_glide_res:A82_Eint>
-23.6395757369258

> <r_glide_res:A42_vdw>
-1.66778999016766

> <r_glide_res:A42_coul>
-13.6389234778659

> <r_glide_res:A42_hbond>
-0.0182636906030398

> <r_glide_res:A42_dist>
2.44649078828909

> <r_glide_res:A42_Eint>
-15.3249771586366

> <r_glide_res:A16_vdw>
-0.133398424310452

> <r_glide_res:A16_coul>
2.64053107829618

> <r_glide_res:A16_hbond>
0

> <r_glide_res:A16_dist>
5.74720030170161

> <r_glide_res:A16_Eint>
2.50713265398573

> <s_m_source_file>
ligprep_Nicaido_neutral.maegz

> <i_m_source_file_index>
12

> <i_lp_mmshare_version>
58128

> <i_f3d_flags>
0

> <s_lp_Force_Field>
S-OPLS

> <r_lp_Energy>
22.988374

> <b_lp_Chiralities_Consistent>
1

> <s_lp_Variant>
Imipenem-2

> <s_epik_input>
W0NIM11bQ0BASF0oW09IXSlbQ0BASF0xQyg9TylOKFtDQEhdMTIpQyhDKD1PKVtPSF0pPUMoW0NIMl0yKVNbQ0gyXVtDSDJdL049W0NIXS9bTkgyXQ==

> <s_epik_cmdline>
J2VwaWtfcHl0aG9uJywgJy1waHQnLCAnMC4wJywgJy1waCcsICc3LjQnLCAnLW50JywgJy1tYScsICc1MDAnLCAnLWltYWUnLCAnPGluZmlsZS5tYWU+JywgJy1vbWFlJywgJzxvdXRmaWxlLm1hZT4n

> <r_lp_tautomer_probability>
1

> <r_epik_Ionization_Penalty>
  0.0001

> <r_epik_Ionization_Penalty_Charging>
  0.0001

> <r_epik_Ionization_Penalty_Neutral>
  0.0000

> <r_epik_State_Penalty>
  0.0000

> <r_epik_Charging_Adjusted_Penalty>
9.5675940864495e-05

> <i_epik_Tot_Q>
0

> <i_epik_Tot_abs_Q>
2

> <s_epik_Chemistry_Notes>
This compound has an imine and may undergo hydrolysis.

> <s_m_subgroup_title>
glide-dock_Nicaido_neutral_pv1

> <s_m_subgroupid>
glide-dock_Nicaido_neutral_pv1

> <b_m_subgroup_collapsed>
0

$$$$
Cephalosporin C
                    3D
 Schrodinger Suite 2022-2.
 45 46  0  0  1  0            999 V2000
  -20.7687  -20.3492  -28.0134 O   0  0  0  0  0  0
  -21.6528  -20.0853  -27.2027 C   0  0  0  0  0  0
  -21.9841  -20.8549  -26.1713 O   0  0  0  0  0  0
  -21.3185  -22.0939  -26.0119 C   0  0  0  0  0  0
  -21.5010  -22.5984  -24.5975 C   0  0  0  0  0  0
  -22.3963  -23.5589  -24.2544 C   0  0  0  0  0  0
  -22.4837  -24.0425  -22.9401 N   0  0  0  0  0  0
  -21.5148  -23.7734  -21.8935 C   0  0  2  0  0  0
  -22.4898  -24.4516  -20.9104 C   0  0  2  0  0  0
  -23.4710  -24.5109  -22.1062 C   0  0  0  0  0  0
  -24.6382  -24.7492  -22.3192 O   0  0  0  0  0  0
  -22.9124  -23.5571  -19.8343 N   0  0  0  0  0  0
  -23.3039  -23.9646  -18.6186 C   0  0  0  0  0  0
  -23.6809  -22.8865  -17.5989 C   0  0  0  0  0  0
  -25.1815  -22.9149  -17.2557 C   0  0  0  0  0  0
  -26.0475  -22.1021  -18.2372 C   0  0  0  0  0  0
  -27.5371  -22.5227  -18.2418 C   0  0  2  0  0  0
  -27.7602  -23.8462  -18.9965 C   0  0  0  0  0  0
  -27.3279  -23.9495  -20.1687 O   0  5  0  0  0  0
  -28.3918  -24.7495  -18.4101 O   0  0  0  0  0  0
  -28.3689  -21.4921  -18.8835 N   0  3  0  0  0  0
  -23.3528  -25.1510  -18.2937 O   0  0  0  0  0  0
  -21.1374  -21.9972  -21.8867 S   0  0  0  0  0  0
  -20.5729  -21.9003  -23.6056 C   0  0  0  0  0  0
  -23.4107  -24.2060  -25.2770 C   0  0  0  0  0  0
  -23.9689  -23.4412  -26.0907 O   0  5  0  0  0  0
  -23.5692  -25.4469  -25.1898 O   0  0  0  0  0  0
  -22.2733  -19.1892  -27.2079 H   0  0  0  0  0  0
  -20.2481  -21.9950  -26.2007 H   0  0  0  0  0  0
  -21.6976  -22.8023  -26.7460 H   0  0  0  0  0  0
  -20.6050  -24.3560  -22.0476 H   0  0  0  0  0  0
  -22.1186  -25.4215  -20.5751 H   0  0  0  0  0  0
  -22.8962  -22.5662  -20.0352 H   0  0  0  0  0  0
  -23.3760  -21.8956  -17.9389 H   0  0  0  0  0  0
  -23.1071  -23.0865  -16.6934 H   0  0  0  0  0  0
  -25.3358  -22.5282  -16.2472 H   0  0  0  0  0  0
  -25.5244  -23.9494  -17.2186 H   0  0  0  0  0  0
  -25.6371  -22.1720  -19.2458 H   0  0  0  0  0  0
  -25.9632  -21.0482  -17.9670 H   0  0  0  0  0  0
  -27.8881  -22.6187  -17.2137 H   0  0  0  0  0  0
  -29.3493  -21.7455  -18.8002 H   0  0  0  0  0  0
  -28.2314  -20.5964  -18.4370 H   0  0  0  0  0  0
  -19.5764  -22.3343  -23.6879 H   0  0  0  0  0  0
  -20.4863  -20.8443  -23.8640 H   0  0  0  0  0  0
  -28.1271  -21.4314  -19.8610 H   0  0  0  0  0  0
  1  2  2  0  0  0
  2  3  1  0  0  0
  2 28  1  0  0  0
  3  4  1  0  0  0
  4  5  1  0  0  0
  4 29  1  0  0  0
  4 30  1  0  0  0
  5 24  1  0  0  0
  5  6  2  0  0  0
  6  7  1  0  0  0
  6 25  1  0  0  0
  7 10  1  0  0  0
  7  8  1  0  0  0
  8  9  1  0  0  0
  8 23  1  0  0  0
  8 31  1  0  0  0
  9 10  1  0  0  0
  9 12  1  0  0  0
  9 32  1  0  0  0
 10 11  2  0  0  0
 12 13  1  0  0  0
 12 33  1  0  0  0
 13 14  1  0  0  0
 13 22  2  0  0  0
 14 15  1  0  0  0
 14 34  1  0  0  0
 14 35  1  0  0  0
 15 16  1  0  0  0
 15 36  1  0  0  0
 15 37  1  0  0  0
 16 17  1  0  0  0
 16 38  1  0  0  0
 16 39  1  0  0  0
 17 18  1  0  0  0
 17 21  1  0  0  0
 17 40  1  0  0  0
 18 19  1  0  0  0
 18 20  2  0  0  0
 21 41  1  0  0  0
 21 42  1  0  0  0
 21 45  1  0  0  0
 23 24  1  0  0  0
 24 43  1  0  0  0
 24 44  1  0  0  0
 25 26  1  0  0  0
 25 27  2  0  0  0
M  CHG  3  19  -1  21   1  26  -1
M  END
> <s_m_entry_id>
27466

> <s_m_entry_name>
data_maestro.25

> <s_m_Source_Path>
C:\Users\olshana1\Git\GramNeg-Accumulation\Gram Negative Permeation - OmpF

> <s_m_Source_File>
data_maestro.csv

> <i_m_Source_File_Index>
25

> <s_m_job_name>
glide-dock_Nicaido_neutral

> <s_i_glide_gridfile>
3POX-grid

> <i_i_glide_lignum>
32

> <i_i_glide_rotatable_bonds>
11

> <r_i_docking_score>
-4.92870615777612

> <r_i_glide_ligand_efficiency>
-0.182544672510227

> <r_i_glide_ligand_efficiency_sa>
-0.547634016929043

> <r_i_glide_ligand_efficiency_ln>
-1.14732153745876

> <r_i_glide_gscore>
-4.92870615777612

> <r_i_glide_lipo>
0

> <r_i_glide_hbond>
-1.01256277924774

> <r_i_glide_metal>
0

> <r_i_glide_rewards>
-1.09978100406546

> <r_i_glide_evdw>
-20.6359710693359

> <r_i_glide_ecoul>
-15.4303464889526

> <r_i_glide_erotb>
0.97830559423054

> <r_i_glide_esite>
-0.448317441883764

> <r_i_glide_emodel>
-65.7940803815013

> <r_i_glide_energy>
-36.0663175582886

> <r_i_glide_einternal>
4.91807460784912

> <i_i_glide_confnum>
240

> <i_i_glide_posenum>
295

> <r_i_glide_eff_state_penalty>
0

> <r_glide_res:A132_vdw>
1.79316458221174

> <r_glide_res:A132_coul>
-54.8687932442249

> <r_glide_res:A132_hbond>
-0.336145303194399

> <r_glide_res:A132_dist>
1.99543036179495

> <r_glide_res:A132_Eint>
-53.4117739652076

> <r_glide_res:A117_vdw>
-0.525072840696841

> <r_glide_res:A117_coul>
18.0290280521271

> <r_glide_res:A117_hbond>
0

> <r_glide_res:A117_dist>
3.82264495433554

> <r_glide_res:A117_Eint>
17.5039552114302

> <r_glide_res:A113_vdw>
-0.572966509406747

> <r_glide_res:A113_coul>
-6.82362054931385

> <r_glide_res:A113_hbond>
-0.211672904488031

> <r_glide_res:A113_dist>
2.02279791834143

> <r_glide_res:A113_Eint>
-7.60825996320863

> <r_glide_res:A82_vdw>
-1.97209891281811

> <r_glide_res:A82_coul>
-45.5308729887687

> <r_glide_res:A82_hbond>
0

> <r_glide_res:A82_dist>
2.77129757181755

> <r_glide_res:A82_Eint>
-47.5029719015868

> <r_glide_res:A42_vdw>
1.70031010372211

> <r_glide_res:A42_coul>
-45.3057984250618

> <r_glide_res:A42_hbond>
-0.139023812508048

> <r_glide_res:A42_dist>
1.8465083279534

> <r_glide_res:A42_Eint>
-43.7445121338477

> <r_glide_res:A16_vdw>
-0.0753678289446278

> <r_glide_res:A16_coul>
-19.2747230730834

> <r_glide_res:A16_hbond>
0

> <r_glide_res:A16_dist>
6.80057779240508

> <r_glide_res:A16_Eint>
-19.350090902028

> <s_m_source_file>
ligprep_Nicaido_neutral.maegz

> <i_m_source_file_index>
25

> <i_lp_mmshare_version>
58128

> <i_f3d_flags>
0

> <s_lp_Force_Field>
S-OPLS

> <r_lp_Energy>
27.061927

> <b_lp_Chiralities_Consistent>
1

> <s_lp_Variant>
Cephalosporin C-1

> <s_epik_input>
Tz1bQ0hdT1tDSDJdQyg9QzFDKD1PKVtPSF0pW0NIMl1TW0NASF0oTjEyKVtDQEhdKEMyPU8pW05IXUMoPU8pW0NIMl1bQ0gyXVtDSDJdW0NAQEhdKFtOSDJdKUMoPU8pW09IXQ==

> <s_epik_cmdline>
J2VwaWtfcHl0aG9uJywgJy1waHQnLCAnMC4wJywgJy1waCcsICc3LjQnLCAnLW50JywgJy1tYScsICc1MDAnLCAnLWltYWUnLCAnPGluZmlsZS5tYWU+JywgJy1vbWFlJywgJzxvdXRmaWxlLm1hZT4n

> <r_lp_tautomer_probability>
1

> <r_epik_Ionization_Penalty>
  0.0034

> <r_epik_Ionization_Penalty_Charging>
  0.0034

> <r_epik_Ionization_Penalty_Neutral>
  0.0000

> <r_epik_State_Penalty>
  0.0000

> <r_epik_Charging_Adjusted_Penalty>
0.00339038450865705

> <i_epik_Tot_Q>
-1

> <i_epik_Tot_abs_Q>
3

> <s_epik_Chemistry_Notes>
This compound has an ester and may undergo hydrolysis at high or low pH. This compound contains an acetal/aminal-like group ( X-CH(R)-Y where X, Y are N, S, or O) that may be acid/base labile, releasing an aldehyde.

> <s_m_subgroup_title>
glide-dock_Nicaido_neutral_pv1

> <s_m_subgroupid>
glide-dock_Nicaido_neutral_pv1

> <b_m_subgroup_collapsed>
0

$$$$
Ceftriaxone
                    3D
 Schrodinger Suite 2022-2.
 52 55  0  0  1  0            999 V2000
  -23.0060  -23.0507  -24.7473 C   0  0  0  0  0  0
  -23.1137  -23.7272  -23.4605 N   0  0  0  0  0  0
  -23.1387  -22.9869  -22.2450 C   0  0  0  0  0  0
  -23.5579  -21.2144  -22.4743 S   0  0  0  0  0  0
  -24.3177  -20.7565  -20.8743 C   0  0  0  0  0  0
  -25.8316  -20.9754  -20.8910 C   0  0  0  0  0  0
  -26.4617  -22.0474  -20.3507 C   0  0  0  0  0  0
  -27.7963  -22.3238  -20.6668 N   0  0  0  0  0  0
  -28.8433  -21.3135  -20.6409 C   0  0  2  0  0  0
  -29.7309  -22.3347  -21.3901 C   0  0  2  0  0  0
  -28.4162  -23.1211  -21.6071 C   0  0  0  0  0  0
  -27.9888  -23.9495  -22.3884 O   0  0  0  0  0  0
  -30.2737  -21.8158  -22.6452 N   0  0  0  0  0  0
  -30.6740  -22.6007  -23.6646 C   0  0  0  0  0  0
  -30.7544  -21.8961  -25.0237 C   0  0  0  0  0  0
  -29.8428  -20.7341  -25.2205 C   0  0  0  0  0  0
  -28.5272  -20.7443  -24.8079 C   0  0  0  0  0  0
  -27.6943  -19.2722  -25.2136 S   0  0  0  0  0  0
  -29.1445  -18.7354  -26.0388 C   0  0  0  0  0  0
  -29.1689  -17.5495  -26.7400 N   0  0  0  0  0  0
  -30.1672  -19.5850  -25.9538 N   0  0  0  0  0  0
  -31.4863  -22.2401  -26.0136 N   0  0  0  0  0  0
  -32.2996  -23.3569  -25.7798 O   0  0  0  0  0  0
  -33.1171  -23.5541  -26.9183 C   0  0  0  0  0  0
  -30.8637  -23.8135  -23.5397 O   0  0  0  0  0  0
  -28.3105  -19.7147  -21.3744 S   0  0  0  0  0  0
  -26.5687  -20.0087  -21.8064 C   0  0  0  0  0  0
  -25.7436  -23.1958  -19.5787 C   0  0  0  0  0  0
  -25.9704  -24.3496  -20.0090 O   0  5  0  0  0  0
  -25.0152  -22.8753  -18.6160 O   0  0  0  0  0  0
  -22.9030  -23.5004  -21.0728 N   0  0  0  0  0  0
  -22.7470  -24.8772  -20.9551 C   0  0  0  0  0  0
  -23.0481  -25.7503  -22.2104 C   0  0  0  0  0  0
  -23.1689  -26.9607  -22.0136 O   0  0  0  0  0  0
  -23.1690  -25.1499  -23.4279 N   0  5  0  0  0  0
  -22.4211  -25.4473  -19.9124 O   0  0  0  0  0  0
  -22.1841  -22.3339  -24.7450 H   0  0  0  0  0  0
  -22.8157  -23.7669  -25.5469 H   0  0  0  0  0  0
  -23.9299  -22.5237  -24.9866 H   0  0  0  0  0  0
  -24.1327  -19.6955  -20.7058 H   0  0  0  0  0  0
  -23.8157  -21.2599  -20.0520 H   0  0  0  0  0  0
  -29.1691  -21.1539  -19.6125 H   0  0  0  0  0  0
  -30.4678  -22.8115  -20.7412 H   0  0  0  0  0  0
  -30.1578  -20.8219  -22.7947 H   0  0  0  0  0  0
  -28.0001  -21.5078  -24.2553 H   0  0  0  0  0  0
  -30.0071  -16.9857  -26.7045 H   0  0  0  0  0  0
  -28.3165  -16.9886  -26.6567 H   0  0  0  0  0  0
  -33.7631  -24.4164  -26.7563 H   0  0  0  0  0  0
  -33.7564  -22.6897  -27.1021 H   0  0  0  0  0  0
  -32.5195  -23.7485  -27.8094 H   0  0  0  0  0  0
  -26.0712  -19.0382  -21.8142 H   0  0  0  0  0  0
  -26.5040  -20.4009  -22.8185 H   0  0  0  0  0  0
  1  2  1  0  0  0
  1 37  1  0  0  0
  1 38  1  0  0  0
  1 39  1  0  0  0
  2 35  1  0  0  0
  2  3  1  0  0  0
  3  4  1  0  0  0
  3 31  2  0  0  0
  4  5  1  0  0  0
  5  6  1  0  0  0
  5 40  1  0  0  0
  5 41  1  0  0  0
  6 27  1  0  0  0
  6  7  2  0  0  0
  7  8  1  0  0  0
  7 28  1  0  0  0
  8 11  1  0  0  0
  8  9  1  0  0  0
  9 10  1  0  0  0
  9 26  1  0  0  0
  9 42  1  0  0  0
 10 11  1  0  0  0
 10 13  1  0  0  0
 10 43  1  0  0  0
 11 12  2  0  0  0
 13 14  1  0  0  0
 13 44  1  0  0  0
 14 15  1  0  0  0
 14 25  2  0  0  0
 15 16  1  0  0  0
 15 22  2  3  0  0
 16 21  1  0  0  0
 16 17  2  0  0  0
 17 18  1  0  0  0
 17 45  1  0  0  0
 18 19  1  0  0  0
 19 20  1  0  0  0
 19 21  2  0  0  0
 20 46  1  0  0  0
 20 47  1  0  0  0
 22 23  1  0  0  0
 23 24  1  0  0  0
 24 48  1  0  0  0
 24 49  1  0  0  0
 24 50  1  0  0  0
 26 27  1  0  0  0
 27 51  1  0  0  0
 27 52  1  0  0  0
 28 29  1  0  0  0
 28 30  2  0  0  0
 31 32  1  0  0  0
 32 33  1  0  0  0
 32 36  2  0  0  0
 33 34  2  0  0  0
 33 35  1  0  0  0
M  CHG  2  29  -1  35  -1
M  END
> <s_m_entry_id>
27467

> <s_m_entry_name>
data_maestro.22

> <s_m_Source_Path>
C:\Users\olshana1\Git\GramNeg-Accumulation\Gram Negative Permeation - OmpF

> <s_m_Source_File>
data_maestro.csv

> <i_m_Source_File_Index>
22

> <s_m_job_name>
glide-dock_Nicaido_neutral

> <s_i_glide_gridfile>
3POX-grid

> <i_i_glide_lignum>
29

> <i_i_glide_rotatable_bonds>
9

> <r_i_docking_score>
-4.92856861296242

> <r_i_glide_ligand_efficiency>
-0.136904683693401

> <r_i_glide_ligand_efficiency_sa>
-0.452049305048564

> <r_i_glide_ligand_efficiency_ln>
-1.07528051681238

> <r_i_glide_gscore>
-4.92856861296242

> <r_i_glide_lipo>
0

> <r_i_glide_hbond>
-0.905302537627271

> <r_i_glide_metal>
0

> <r_i_glide_rewards>
0.0197137199757279

> <r_i_glide_evdw>
-32.4934196472168

> <r_i_glide_ecoul>
-14.2432298660278

> <r_i_glide_erotb>
0.472124986767549

> <r_i_glide_esite>
-0.753949319813415

> <r_i_glide_emodel>
-78.4238962595645

> <r_i_glide_energy>
-46.7366495132446

> <r_i_glide_einternal>
6.74849700927734

> <i_i_glide_confnum>
127

> <i_i_glide_posenum>
333

> <r_i_glide_eff_state_penalty>
0

> <r_glide_res:A132_vdw>
0.815354405757184

> <r_glide_res:A132_coul>
-83.5854247180627

> <r_glide_res:A132_hbond>
-0.330529470868609

> <r_glide_res:A132_dist>
1.64272706245709

> <r_glide_res:A132_Eint>
-83.1005997831741

> <r_glide_res:A117_vdw>
-4.65620252499045

> <r_glide_res:A117_coul>
28.6124529760107

> <r_glide_res:A117_hbond>
-0.16

> <r_glide_res:A117_dist>
1.95093093722361

> <r_glide_res:A117_Eint>
23.7962504510203

> <r_glide_res:A113_vdw>
-2.79652368686482

> <r_glide_res:A113_coul>
32.9291892776341

> <r_glide_res:A113_hbond>
0

> <r_glide_res:A113_dist>
2.34324931349441

> <r_glide_res:A113_Eint>
30.1326655907693

> <r_glide_res:A82_vdw>
-2.83441942099082

> <r_glide_res:A82_coul>
-70.1502910690817

> <r_glide_res:A82_hbond>
-0.205431143154183

> <r_glide_res:A82_dist>
1.98475193797544

> <r_glide_res:A82_Eint>
-73.1901416332267

> <r_glide_res:A42_vdw>
-2.87063104314981

> <r_glide_res:A42_coul>
-47.8888423684287

> <r_glide_res:A42_hbond>
0

> <r_glide_res:A42_dist>
2.67942436985163

> <r_glide_res:A42_Eint>
-50.7594734115785

> <r_glide_res:A16_vdw>
-2.0747355540153

> <r_glide_res:A16_coul>
-37.1528556000297

> <r_glide_res:A16_hbond>
0

> <r_glide_res:A16_dist>
2.6503927738001

> <r_glide_res:A16_Eint>
-39.227591154045

> <s_m_source_file>
ligprep_Nicaido_neutral.maegz

> <i_m_source_file_index>
22

> <i_lp_mmshare_version>
58128

> <i_f3d_flags>
0

> <s_lp_Force_Field>
S-OPLS

> <r_lp_Energy>
111.196812

> <b_lp_Chiralities_Consistent>
1

> <s_lp_Variant>
Ceftriaxone-2

> <s_epik_input>
W09IXWMobjEpYyg9TyluYyhuMVtDSDNdKVNbQ0gyXUMoPUMyQyg9TylbT0hdKVtDSDJdU1tDQEhdKE4yMylbQ0BIXShDMz1PKVtOSF1DKD1PKS9DKD1OL09bQ0gzXSljNFtjSF1zYyhuNClbTkgyXQ==

> <s_epik_cmdline>
J2VwaWtfcHl0aG9uJywgJy1waHQnLCAnMC4wJywgJy1waCcsICc3LjQnLCAnLW50JywgJy1tYScsICc1MDAnLCAnLWltYWUnLCAnPGluZmlsZS5tYWU+JywgJy1vbWFlJywgJzxvdXRmaWxlLm1hZT4n

> <r_lp_tautomer_probability>
1

> <r_epik_Ionization_Penalty>
  0.0014

> <r_epik_Ionization_Penalty_Charging>
  0.0010

> <r_epik_Ionization_Penalty_Neutral>
  0.0004

> <r_epik_State_Penalty>
  0.0000

> <r_epik_Charging_Adjusted_Penalty>
0.000994184415634904

> <i_epik_Tot_Q>
-2

> <i_epik_Tot_abs_Q>
2

> <s_epik_Chemistry_Notes>
This compound has an imine and may undergo hydrolysis. This compound contains an acetal/aminal-like group ( X-CH(R)-Y where X, Y are N, S, or O) that may be acid/base labile, releasing an aldehyde.

> <s_m_subgroup_title>
glide-dock_Nicaido_neutral_pv1

> <s_m_subgroupid>
glide-dock_Nicaido_neutral_pv1

> <b_m_subgroup_collapsed>
0

$$$$
Cephaloridine
                    3D
 Schrodinger Suite 2022-2.
 45 48  0  0  1  0            999 V2000
  -27.6545  -21.1495  -26.0131 O   0  0  0  0  0  0
  -27.3244  -20.6818  -24.9498 C   0  0  0  0  0  0
  -26.3757  -19.6063  -24.3821 C   0  0  2  0  0  0
  -25.0523  -19.5496  -25.0116 N   0  0  0  0  0  0
  -24.2553  -20.5297  -25.4681 C   0  0  0  0  0  0
  -23.0160  -20.0755  -26.2426 C   0  0  0  0  0  0
  -21.7586  -20.4003  -25.5028 C   0  0  0  0  0  0
  -20.7995  -21.3190  -25.8476 C   0  0  0  0  0  0
  -19.7219  -21.3812  -24.9165 C   0  0  0  0  0  0
  -19.8730  -20.5073  -23.8726 C   0  0  0  0  0  0
  -21.3387  -19.5765  -24.0202 S   0  0  0  0  0  0
  -24.4812  -21.7317  -25.3123 O   0  0  0  0  0  0
  -26.4706  -20.4302  -23.0767 C   0  0  2  0  0  0
  -27.6935  -20.9661  -23.6645 N   0  0  0  0  0  0
  -28.5713  -21.7745  -22.9444 C   0  0  0  0  0  0
  -29.0326  -23.1274  -23.5861 C   0  0  0  0  0  0
  -29.2807  -23.1492  -24.8114 O   0  5  0  0  0  0
  -29.0722  -24.1100  -22.8130 O   0  0  0  0  0  0
  -29.0814  -21.2551  -21.8067 C   0  0  0  0  0  0
  -30.2370  -21.8748  -21.0357 C   0  0  0  0  0  0
  -31.5286  -21.4499  -21.6171 N   0  3  0  0  0  0
  -31.9657  -20.1759  -21.4438 C   0  0  0  0  0  0
  -33.1805  -19.7443  -22.0133 C   0  0  0  0  0  0
  -33.9465  -20.6557  -22.7646 C   0  0  0  0  0  0
  -33.4775  -21.9739  -22.9277 C   0  0  0  0  0  0
  -32.2523  -22.3459  -22.3363 C   0  0  0  0  0  0
  -28.6221  -19.8815  -21.3159 C   0  0  0  0  0  0
  -26.8163  -19.6857  -21.4293 S   0  0  0  0  0  0
  -26.8311  -18.6194  -24.2813 H   0  0  0  0  0  0
  -24.7627  -18.5880  -25.2138 H   0  0  0  0  0  0
  -23.0633  -19.0033  -26.4398 H   0  0  0  0  0  0
  -23.0171  -20.5662  -27.2159 H   0  0  0  0  0  0
  -20.8338  -21.9430  -26.7292 H   0  0  0  0  0  0
  -18.8850  -22.0519  -25.0462 H   0  0  0  0  0  0
  -19.2121  -20.3400  -23.0349 H   0  0  0  0  0  0
  -25.7112  -21.2101  -22.9837 H   0  0  0  0  0  0
  -30.2055  -22.9608  -20.9938 H   0  0  0  0  0  0
  -30.1992  -21.5493  -20.0138 H   0  0  0  0  0  0
  -31.3492  -19.5349  -20.8274 H   0  0  0  0  0  0
  -33.5233  -18.7317  -21.8546 H   0  0  0  0  0  0
  -34.8857  -20.3494  -23.2016 H   0  0  0  0  0  0
  -34.0522  -22.6905  -23.4961 H   0  0  0  0  0  0
  -31.8391  -23.3395  -22.4291 H   0  0  0  0  0  0
  -29.0996  -19.1080  -21.9187 H   0  0  0  0  0  0
  -28.9238  -19.7043  -20.2844 H   0  0  0  0  0  0
  1  2  2  0  0  0
  2 14  1  0  0  0
  2  3  1  0  0  0
  3  4  1  0  0  0
  3 13  1  0  0  0
  3 29  1  0  0  0
  4  5  1  0  0  0
  4 30  1  0  0  0
  5  6  1  0  0  0
  5 12  2  0  0  0
  6  7  1  0  0  0
  6 31  1  0  0  0
  6 32  1  0  0  0
  7 11  1  0  0  0
  7  8  2  0  0  0
  8  9  1  0  0  0
  8 33  1  0  0  0
  9 10  2  0  0  0
  9 34  1  0  0  0
 10 11  1  0  0  0
 10 35  1  0  0  0
 13 28  1  0  0  0
 13 14  1  0  0  0
 13 36  1  0  0  0
 14 15  1  0  0  0
 15 16  1  0  0  0
 15 19  2  0  0  0
 16 17  1  0  0  0
 16 18  2  0  0  0
 19 20  1  0  0  0
 19 27  1  0  0  0
 20 21  1  0  0  0
 20 37  1  0  0  0
 20 38  1  0  0  0
 21 26  1  0  0  0
 21 22  2  0  0  0
 22 23  1  0  0  0
 22 39  1  0  0  0
 23 24  2  0  0  0
 23 40  1  0  0  0
 24 25  1  0  0  0
 24 41  1  0  0  0
 25 26  2  0  0  0
 25 42  1  0  0  0
 26 43  1  0  0  0
 27 28  1  0  0  0
 27 44  1  0  0  0
 27 45  1  0  0  0
M  CHG  2  17  -1  21   1
M  END
> <s_m_entry_id>
27468

> <s_m_entry_name>
data_maestro.13

> <s_m_Source_Path>
C:\Users\olshana1\Git\GramNeg-Accumulation\Gram Negative Permeation - OmpF

> <s_m_Source_File>
data_maestro.csv

> <i_m_Source_File_Index>
13

> <s_m_job_name>
glide-dock_Nicaido_neutral

> <s_i_glide_gridfile>
3POX-grid

> <i_i_glide_lignum>
18

> <i_i_glide_rotatable_bonds>
7

> <r_i_docking_score>
-4.92622685346437

> <r_i_glide_ligand_efficiency>
-0.175936673338013

> <r_i_glide_ligand_efficiency_sa>
-0.534247361413294

> <r_i_glide_ligand_efficiency_ln>
-1.13711779808501

> <r_i_glide_gscore>
-4.92622685346437

> <r_i_glide_lipo>
-0.0928126236556343

> <r_i_glide_hbond>
-0.734045736375847

> <r_i_glide_metal>
0

> <r_i_glide_rewards>
-0.575106064771073

> <r_i_glide_evdw>
-22.0677814483643

> <r_i_glide_ecoul>
-16.49049949646

> <r_i_glide_erotb>
0.571951339556603

> <r_i_glide_esite>
-0.519249771331209

> <r_i_glide_emodel>
-61.0577737591652

> <r_i_glide_energy>
-38.5582809448242

> <r_i_glide_einternal>
6.63573789596558

> <i_i_glide_confnum>
66

> <i_i_glide_posenum>
99

> <r_i_glide_eff_state_penalty>
0

> <r_glide_res:A132_vdw>
-1.01389129623304

> <r_glide_res:A132_coul>
-10.2415575736099

> <r_glide_res:A132_hbond>
0

> <r_glide_res:A132_dist>
2.93071810110365

> <r_glide_res:A132_Eint>
-11.2554488698429

> <r_glide_res:A117_vdw>
-3.32146026996887

> <r_glide_res:A117_coul>
-10.2386850927649

> <r_glide_res:A117_hbond>
-0.16

> <r_glide_res:A117_dist>
1.77909948286752

> <r_glide_res:A117_Eint>
-13.7201453627338

> <r_glide_res:A113_vdw>
-2.43928534494074

> <r_glide_res:A113_coul>
-24.0797649066685

> <r_glide_res:A113_hbond>
0

> <r_glide_res:A113_dist>
2.18758532755366

> <r_glide_res:A113_Eint>
-26.5190502516092

> <r_glide_res:A82_vdw>
0.563646020397615

> <r_glide_res:A82_coul>
-26.4563648510107

> <r_glide_res:A82_hbond>
-0.245669806062568

> <r_glide_res:A82_dist>
1.76993713885215

> <r_glide_res:A82_Eint>
-26.1383886366756

> <r_glide_res:A42_vdw>
-0.811417587255858

> <r_glide_res:A42_coul>
-31.5576219319888

> <r_glide_res:A42_hbond>
-0.328375930313279

> <r_glide_res:A42_dist>
1.851868651538

> <r_glide_res:A42_Eint>
-32.6974154495579

> <r_glide_res:A16_vdw>
-0.63308795616494

> <r_glide_res:A16_coul>
-10.684065611349

> <r_glide_res:A16_hbond>
0

> <r_glide_res:A16_dist>
3.37598356353839

> <r_glide_res:A16_Eint>
-11.317153567514

> <s_m_source_file>
ligprep_Nicaido_neutral.maegz

> <i_m_source_file_index>
13

> <i_lp_mmshare_version>
58128

> <i_f3d_flags>
0

> <s_lp_Force_Field>
S-OPLS

> <r_lp_Energy>
50.740529

> <b_lp_Chiralities_Consistent>
1

> <s_lp_Variant>
Cephaloridine-1

> <s_epik_input>
czFbY0hdW2NIXVtjSF1jMVtDSDJdQyg9TylbTkhdW0NASF0yQyg9TylOKFtDQEBIXTIzKUMoQyg9TylbT0hdKT1DKFtDSDJdUzMpW0NIMl1bbitdNFtjSF1bY0hdW2NIXVtjSF1bY0hdNA==

> <s_epik_cmdline>
J2VwaWtfcHl0aG9uJywgJy1waHQnLCAnMC4wJywgJy1waCcsICc3LjQnLCAnLW50JywgJy1tYScsICc1MDAnLCAnLWltYWUnLCAnPGluZmlsZS5tYWU+JywgJy1vbWFlJywgJzxvdXRmaWxlLm1hZT4n

> <r_lp_tautomer_probability>
1

> <r_epik_Ionization_Penalty>
  0.0000

> <r_epik_Ionization_Penalty_Charging>
  0.0000

> <r_epik_Ionization_Penalty_Neutral>
  0.0000

> <r_epik_State_Penalty>
  0.0000

> <r_epik_Charging_Adjusted_Penalty>
1.62498989321064e-05

> <i_epik_Tot_Q>
0

> <i_epik_Tot_abs_Q>
2

> <s_epik_Chemistry_Notes>
This compound contains an acetal/aminal-like group ( X-CH(R)-Y where X, Y are N, S, or O) that may be acid/base labile, releasing an aldehyde.

> <s_m_subgroup_title>
glide-dock_Nicaido_neutral_pv1

> <s_m_subgroupid>
glide-dock_Nicaido_neutral_pv1

> <b_m_subgroup_collapsed>
0

$$$$
Imipenem
                    3D
 Schrodinger Suite 2022-2.
 37 38  0  0  1  0            999 V2000
  -21.5977  -22.1922  -25.3246 C   0  0  0  0  0  0
  -22.9123  -21.6136  -25.8675 C   0  0  2  0  0  0
  -23.9897  -21.4147  -24.7852 C   0  0  1  0  0  0
  -25.4278  -21.0057  -25.1872 C   0  0  2  0  0  0
  -26.3089  -19.9062  -24.5679 C   0  0  0  0  0  0
  -27.4160  -20.6977  -23.8984 C   0  0  0  0  0  0
  -28.8262  -19.9261  -23.1577 S   0  0  0  0  0  0
  -29.2323  -18.5191  -24.2347 C   0  0  0  0  0  0
  -30.3061  -17.5944  -23.6288 C   0  0  0  0  0  0
  -31.4419  -18.3496  -23.0774 N   0  3  0  0  0  0
  -31.5691  -18.7224  -21.7913 C   0  0  0  0  0  0
  -30.7310  -18.3496  -20.8134 N   0  0  0  0  0  0
  -27.1056  -21.9946  -23.8208 C   0  0  0  0  0  0
  -25.8621  -22.1522  -24.4108 N   0  0  0  0  0  0
  -24.6253  -22.7372  -24.2525 C   0  0  0  0  0  0
  -24.2684  -23.8266  -23.8534 O   0  0  0  0  0  0
  -27.8601  -23.1496  -23.0876 C   0  0  0  0  0  0
  -27.1689  -23.9496  -22.4135 O   0  5  0  0  0  0
  -29.0580  -23.3093  -23.4075 O   0  0  0  0  0  0
  -23.3720  -22.4521  -26.9167 O   0  0  0  0  0  0
  -21.1924  -21.5597  -24.5343 H   0  0  0  0  0  0
  -20.8435  -22.2583  -26.1098 H   0  0  0  0  0  0
  -21.7360  -23.1917  -24.9131 H   0  0  0  0  0  0
  -22.6941  -20.6442  -26.3181 H   0  0  0  0  0  0
  -23.6351  -20.7697  -23.9796 H   0  0  0  0  0  0
  -25.6376  -21.1737  -26.2456 H   0  0  0  0  0  0
  -25.7703  -19.3178  -23.8237 H   0  0  0  0  0  0
  -26.6893  -19.2280  -25.3314 H   0  0  0  0  0  0
  -28.3229  -17.9496  -24.4134 H   0  0  0  0  0  0
  -29.5583  -18.8985  -25.2028 H   0  0  0  0  0  0
  -29.8789  -16.9767  -22.8409 H   0  0  0  0  0  0
  -30.6736  -16.9048  -24.3890 H   0  0  0  0  0  0
  -32.3864  -19.3845  -21.5271 H   0  0  0  0  0  0
  -30.0049  -17.6527  -20.9291 H   0  0  0  0  0  0
  -30.7689  -18.8792  -19.9132 H   0  0  0  0  0  0
  -22.7074  -22.4794  -27.5927 H   0  0  0  0  0  0
  -32.1440  -18.6572  -23.7338 H   0  0  0  0  0  0
  1  2  1  0  0  0
  1 21  1  0  0  0
  1 22  1  0  0  0
  1 23  1  0  0  0
  2  3  1  0  0  0
  2 20  1  0  0  0
  2 24  1  0  0  0
  3 15  1  0  0  0
  3  4  1  0  0  0
  3 25  1  0  0  0
  4 14  1  0  0  0
  4  5  1  0  0  0
  4 26  1  0  0  0
  5  6  1  0  0  0
  5 27  1  0  0  0
  5 28  1  0  0  0
  6  7  1  0  0  0
  6 13  2  0  0  0
  7  8  1  0  0  0
  8  9  1  0  0  0
  8 29  1  0  0  0
  8 30  1  0  0  0
  9 10  1  0  0  0
  9 31  1  0  0  0
  9 32  1  0  0  0
 10 11  2  3  0  0
 10 37  1  0  0  0
 11 12  1  0  0  0
 11 33  1  0  0  0
 12 34  1  0  0  0
 12 35  1  0  0  0
 13 14  1  0  0  0
 13 17  1  0  0  0
 14 15  1  0  0  0
 15 16  2  0  0  0
 17 18  1  0  0  0
 17 19  2  0  0  0
 20 36  1  0  0  0
M  CHG  2  10   1  18  -1
M  END
> <s_m_entry_id>
27469

> <s_m_entry_name>
data_maestro.12

> <s_m_Source_Path>
C:\Users\olshana1\Git\GramNeg-Accumulation\Gram Negative Permeation - OmpF

> <s_m_Source_File>
data_maestro.csv

> <i_m_Source_File_Index>
12

> <s_m_job_name>
glide-dock_Nicaido_neutral

> <s_i_glide_gridfile>
3POX-grid

> <i_i_glide_lignum>
17

> <i_i_glide_rotatable_bonds>
7

> <r_i_docking_score>
-4.92553213821906

> <r_i_glide_ligand_efficiency>
-0.246276606910953

> <r_i_glide_ligand_efficiency_sa>
-0.668497559686764

> <r_i_glide_ligand_efficiency_ln>
-1.23269823927369

> <r_i_glide_gscore>
-4.92553213821906

> <r_i_glide_lipo>
0

> <r_i_glide_hbond>
-0.435586072014707

> <r_i_glide_metal>
0

> <r_i_glide_rewards>
-1.36808809090909

> <r_i_glide_evdw>
-16.9695987701416

> <r_i_glide_ecoul>
-18.8242721557617

> <r_i_glide_erotb>
1.02473259195513

> <r_i_glide_esite>
-0.474469805379056

> <r_i_glide_emodel>
-60.247848340309

> <r_i_glide_energy>
-35.7938709259033

> <r_i_glide_einternal>
8.12508964538574

> <i_i_glide_confnum>
195

> <i_i_glide_posenum>
334

> <r_i_glide_eff_state_penalty>
0

> <r_glide_res:A132_vdw>
-1.3181795024091

> <r_glide_res:A132_coul>
-25.1537791784625

> <r_glide_res:A132_hbond>
0

> <r_glide_res:A132_dist>
2.62361385998334

> <r_glide_res:A132_Eint>
-26.4719586808716

> <r_glide_res:A117_vdw>
-4.45757682924644

> <r_glide_res:A117_coul>
-8.9789338945413

> <r_glide_res:A117_hbond>
0

> <r_glide_res:A117_dist>
2.09117511862095

> <r_glide_res:A117_Eint>
-13.4365107237877

> <r_glide_res:A113_vdw>
1.506996668438

> <r_glide_res:A113_coul>
-18.8244600430061

> <r_glide_res:A113_hbond>
-0.2

> <r_glide_res:A113_dist>
1.60960020637923

> <r_glide_res:A113_Eint>
-17.5174633745681

> <r_glide_res:A82_vdw>
-0.492382227144607

> <r_glide_res:A82_coul>
-36.1672072896698

> <r_glide_res:A82_hbond>
-0.235586072014707

> <r_glide_res:A82_dist>
1.79996534303004

> <r_glide_res:A82_Eint>
-36.8951755888291

> <r_glide_res:A42_vdw>
-1.07179917197941

> <r_glide_res:A42_coul>
-22.8327177486536

> <r_glide_res:A42_hbond>
0

> <r_glide_res:A42_dist>
2.17555550859389

> <r_glide_res:A42_Eint>
-23.904516920633

> <r_glide_res:A16_vdw>
-0.343098926103789

> <r_glide_res:A16_coul>
-0.715985620158841

> <r_glide_res:A16_hbond>
0

> <r_glide_res:A16_dist>
3.76353888981015

> <r_glide_res:A16_Eint>
-1.05908454626263

> <s_m_source_file>
ligprep_Nicaido_neutral.maegz

> <i_m_source_file_index>
12

> <i_lp_mmshare_version>
58128

> <i_f3d_flags>
0

> <s_lp_Force_Field>
S-OPLS

> <r_lp_Energy>
22.988374

> <b_lp_Chiralities_Consistent>
1

> <s_lp_Variant>
Imipenem-2

> <s_epik_input>
W0NIM11bQ0BASF0oW09IXSlbQ0BASF0xQyg9TylOKFtDQEhdMTIpQyhDKD1PKVtPSF0pPUMoW0NIMl0yKVNbQ0gyXVtDSDJdL049W0NIXS9bTkgyXQ==

> <s_epik_cmdline>
J2VwaWtfcHl0aG9uJywgJy1waHQnLCAnMC4wJywgJy1waCcsICc3LjQnLCAnLW50JywgJy1tYScsICc1MDAnLCAnLWltYWUnLCAnPGluZmlsZS5tYWU+JywgJy1vbWFlJywgJzxvdXRmaWxlLm1hZT4n

> <r_lp_tautomer_probability>
1

> <r_epik_Ionization_Penalty>
  0.0001

> <r_epik_Ionization_Penalty_Charging>
  0.0001

> <r_epik_Ionization_Penalty_Neutral>
  0.0000

> <r_epik_State_Penalty>
  0.0000

> <r_epik_Charging_Adjusted_Penalty>
9.5675940864495e-05

> <i_epik_Tot_Q>
0

> <i_epik_Tot_abs_Q>
2

> <s_epik_Chemistry_Notes>
This compound has an imine and may undergo hydrolysis.

> <s_m_subgroup_title>
glide-dock_Nicaido_neutral_pv1

> <s_m_subgroupid>
glide-dock_Nicaido_neutral_pv1

> <b_m_subgroup_collapsed>
0

$$$$
LY097964
                    3D
 Schrodinger Suite 2022-2.
 40 42  0  0  1  0            999 V2000
  -34.1930  -21.7160  -28.5972 C   0  0  0  0  0  0
  -33.1697  -21.6885  -27.6147 O   0  0  0  0  0  0
  -33.7232  -22.1688  -26.4165 N   0  0  0  0  0  0
  -32.9224  -22.1691  -25.4218 C   0  0  0  0  0  0
  -33.4130  -22.5994  -24.0870 C   0  0  0  0  0  0
  -34.4616  -21.9579  -23.4687 C   0  0  0  0  0  0
  -34.7933  -22.6198  -21.8894 S   0  0  0  0  0  0
  -33.5033  -23.7822  -22.1504 C   0  0  0  0  0  0
  -33.1952  -24.7491  -21.2134 N   0  0  0  0  0  0
  -32.8808  -23.6470  -23.3215 N   0  0  0  0  0  0
  -31.4540  -21.7543  -25.4417 C   0  0  0  0  0  0
  -31.0504  -21.1813  -24.2926 N   0  0  0  0  0  0
  -29.6927  -20.7511  -23.9690 C   0  0  1  0  0  0
  -29.4684  -20.7295  -22.4454 C   0  0  1  0  0  0
  -28.3294  -21.5988  -22.6620 N   0  0  0  0  0  0
  -28.6504  -21.8913  -23.9831 C   0  0  0  0  0  0
  -28.2837  -22.7389  -24.7727 O   0  0  0  0  0  0
  -27.6003  -22.1062  -21.5665 C   0  0  0  0  0  0
  -27.0444  -23.5645  -21.7583 C   0  0  0  0  0  0
  -27.7666  -24.3495  -22.4131 O   0  5  0  0  0  0
  -25.9687  -23.8975  -21.2125 O   0  0  0  0  0  0
  -27.5019  -21.4086  -20.3987 C   0  0  0  0  0  0
  -28.0567  -19.9982  -20.1870 C   0  0  0  0  0  0
  -28.8837  -19.2371  -21.6113 S   0  0  0  0  0  0
  -26.8194  -21.9244  -19.1365 C   0  0  0  0  0  0
  -30.7145  -21.9496  -26.4124 O   0  0  0  0  0  0
  -33.8117  -21.3461  -29.5491 H   0  0  0  0  0  0
  -34.5610  -22.7305  -28.7592 H   0  0  0  0  0  0
  -35.0349  -21.0833  -28.3109 H   0  0  0  0  0  0
  -35.0467  -21.1264  -23.8339 H   0  0  0  0  0  0
  -32.3532  -25.2956  -21.3213 H   0  0  0  0  0  0
  -33.4899  -24.6081  -20.2517 H   0  0  0  0  0  0
  -31.7320  -21.0678  -23.5551 H   0  0  0  0  0  0
  -29.3826  -19.8276  -24.4604 H   0  0  0  0  0  0
  -30.2448  -21.2352  -21.8647 H   0  0  0  0  0  0
  -28.7688  -20.0373  -19.3658 H   0  0  0  0  0  0
  -27.2560  -19.3328  -19.8629 H   0  0  0  0  0  0
  -27.3407  -21.5647  -18.2480 H   0  0  0  0  0  0
  -26.8102  -23.0097  -19.0620 H   0  0  0  0  0  0
  -25.7929  -21.5602  -19.0918 H   0  0  0  0  0  0
  1  2  1  0  0  0
  1 27  1  0  0  0
  1 28  1  0  0  0
  1 29  1  0  0  0
  2  3  1  0  0  0
  3  4  2  3  0  0
  4  5  1  0  0  0
  4 11  1  0  0  0
  5 10  1  0  0  0
  5  6  2  0  0  0
  6  7  1  0  0  0
  6 30  1  0  0  0
  7  8  1  0  0  0
  8  9  1  0  0  0
  8 10  2  0  0  0
  9 31  1  0  0  0
  9 32  1  0  0  0
 11 12  1  0  0  0
 11 26  2  0  0  0
 12 13  1  0  0  0
 12 33  1  0  0  0
 13 16  1  0  0  0
 13 14  1  0  0  0
 13 34  1  0  0  0
 14 24  1  0  0  0
 14 15  1  0  0  0
 14 35  1  0  0  0
 15 16  1  0  0  0
 15 18  1  0  0  0
 16 17  2  0  0  0
 18 19  1  0  0  0
 18 22  2  0  0  0
 19 20  1  0  0  0
 19 21  2  0  0  0
 22 23  1  0  0  0
 22 25  1  0  0  0
 23 24  1  0  0  0
 23 36  1  0  0  0
 23 37  1  0  0  0
 25 38  1  0  0  0
 25 39  1  0  0  0
 25 40  1  0  0  0
M  CHG  1  20  -1
M  END
> <s_m_entry_id>
27470

> <s_m_entry_name>
data_maestro.7

> <s_m_Source_Path>
C:\Users\olshana1\Git\GramNeg-Accumulation\Gram Negative Permeation - OmpF

> <s_m_Source_File>
data_maestro.csv

> <i_m_Source_File_Index>
7

> <s_m_job_name>
glide-dock_Nicaido_neutral

> <s_i_glide_gridfile>
3POX-grid

> <i_i_glide_lignum>
10

> <i_i_glide_rotatable_bonds>
6

> <r_i_docking_score>
-4.91617692698505

> <r_i_glide_ligand_efficiency>
-0.189083727960964

> <r_i_glide_ligand_efficiency_sa>
-0.560159800075812

> <r_i_glide_ligand_efficiency_ln>
-1.15454802001022

> <r_i_glide_gscore>
-4.91617692698505

> <r_i_glide_lipo>
0

> <r_i_glide_hbond>
-1.14461800699614

> <r_i_glide_metal>
0

> <r_i_glide_rewards>
-0.706173711768366

> <r_i_glide_evdw>
-16.9047393798828

> <r_i_glide_ecoul>
-15.3734111785889

> <r_i_glide_erotb>
0.622478626066327

> <r_i_glide_esite>
-0.536615188504406

> <r_i_glide_emodel>
-53.8962759525708

> <r_i_glide_energy>
-32.2781505584717

> <r_i_glide_einternal>
3.97425150871277

> <i_i_glide_confnum>
51

> <i_i_glide_posenum>
41

> <r_i_glide_eff_state_penalty>
0

> <r_glide_res:A132_vdw>
0.0682530816828085

> <r_glide_res:A132_coul>
-46.5795771990311

> <r_glide_res:A132_hbond>
-0.213848026376731

> <r_glide_res:A132_dist>
1.85040053795399

> <r_glide_res:A132_Eint>
-46.7251721437251

> <r_glide_res:A117_vdw>
-1.14784421890889

> <r_glide_res:A117_coul>
22.5515358342866

> <r_glide_res:A117_hbond>
0

> <r_glide_res:A117_dist>
3.11601785363797

> <r_glide_res:A117_Eint>
21.4036916153777

> <r_glide_res:A113_vdw>
-3.01951161610094

> <r_glide_res:A113_coul>
18.6204719935456

> <r_glide_res:A113_hbond>
0

> <r_glide_res:A113_dist>
2.23924827713426

> <r_glide_res:A113_Eint>
15.6009603774447

> <r_glide_res:A82_vdw>
1.34734604203779

> <r_glide_res:A82_coul>
-52.6296461087826

> <r_glide_res:A82_hbond>
-0.216818676463643

> <r_glide_res:A82_dist>
1.63794010393524

> <r_glide_res:A82_Eint>
-51.4991187432085

> <r_glide_res:A42_vdw>
-1.16262828333168

> <r_glide_res:A42_coul>
-42.3032892324032

> <r_glide_res:A42_hbond>
-0.250336664484723

> <r_glide_res:A42_dist>
2.01007870256584

> <r_glide_res:A42_Eint>
-43.7162541802196

> <r_glide_res:A16_vdw>
0.0744357307233584

> <r_glide_res:A16_coul>
-35.6894557835208

> <r_glide_res:A16_hbond>
-0.113765844002191

> <r_glide_res:A16_dist>
1.92725936351038

> <r_glide_res:A16_Eint>
-35.7287858967996

> <s_m_source_file>
ligprep_Nicaido_neutral.maegz

> <i_m_source_file_index>
7

> <i_lp_mmshare_version>
58128

> <i_f3d_flags>
0

> <s_lp_Force_Field>
S-OPLS

> <r_lp_Energy>
53.916069

> <b_lp_Chiralities_Consistent>
1

> <s_lp_Variant>
LY097964-2

> <s_epik_input>
W05IMl1jKG4xKXNbY0hdYzEvQyg9TlxPW0NIM10pQyg9TylbTkhdW0NAQEhdMkMoPU8pTihbQ0BIXTIzKUMoQyg9TylbT0hdKT1DKFtDSDJdUzMpW0NIM10=

> <s_epik_cmdline>
J2VwaWtfcHl0aG9uJywgJy1waHQnLCAnMC4wJywgJy1waCcsICc3LjQnLCAnLW50JywgJy1tYScsICc1MDAnLCAnLWltYWUnLCAnPGluZmlsZS5tYWU+JywgJy1vbWFlJywgJzxvdXRmaWxlLm1hZT4n

> <r_lp_tautomer_probability>
1

> <r_epik_Ionization_Penalty>
  0.0005

> <r_epik_Ionization_Penalty_Charging>
  0.0000

> <r_epik_Ionization_Penalty_Neutral>
  0.0005

> <r_epik_State_Penalty>
  0.0000

> <r_epik_Charging_Adjusted_Penalty>
1.64985111359435e-05

> <i_epik_Tot_Q>
-1

> <i_epik_Tot_abs_Q>
1

> <s_epik_Chemistry_Notes>
This compound has an imine and may undergo hydrolysis. This compound contains an acetal/aminal-like group ( X-CH(R)-Y where X, Y are N, S, or O) that may be acid/base labile, releasing an aldehyde.

> <s_m_subgroup_title>
glide-dock_Nicaido_neutral_pv1

> <s_m_subgroupid>
glide-dock_Nicaido_neutral_pv1

> <b_m_subgroup_collapsed>
0

$$$$
Cefmetazole
                    3D
 Schrodinger Suite 2022-2.
 46 48  0  0  1  0            999 V2000
  -24.0976  -21.9714  -25.3235 C   0  0  0  0  0  0
  -24.0602  -23.0824  -24.3917 N   0  0  0  0  0  0
  -24.0570  -23.1097  -23.0529 C   0  0  0  0  0  0
  -24.0165  -21.6658  -22.0480 S   0  0  0  0  0  0
  -25.7809  -21.4967  -21.6223 C   0  0  0  0  0  0
  -26.6848  -21.0223  -22.7675 C   0  0  0  0  0  0
  -27.7503  -21.7142  -23.2764 C   0  0  0  0  0  0
  -28.6470  -21.1094  -24.1904 N   0  0  0  0  0  0
  -28.7316  -19.6714  -24.3574 C   0  0  2  0  0  0
  -29.8671  -19.9001  -25.3804 C   0  0  1  0  0  0
  -29.5692  -19.5319  -26.7298 O   0  0  0  0  0  0
  -29.5523  -18.1313  -26.9928 C   0  0  0  0  0  0
  -29.6021  -21.4141  -25.1489 C   0  0  0  0  0  0
  -29.9861  -22.4660  -25.6136 O   0  0  0  0  0  0
  -31.1776  -19.4394  -24.9104 N   0  0  0  0  0  0
  -32.3460  -19.7009  -25.5199 C   0  0  0  0  0  0
  -33.6184  -19.1533  -24.8708 C   0  0  0  0  0  0
  -33.5286  -17.3954  -24.4121 S   0  0  0  0  0  0
  -33.3510  -16.5963  -26.0321 C   0  0  0  0  0  0
  -34.5928  -16.6819  -26.8109 C   0  0  0  0  0  0
  -35.5693  -16.7496  -27.4278 N   0  0  0  0  0  0
  -32.4262  -20.3501  -26.5634 O   0  0  0  0  0  0
  -27.0664  -19.1499  -24.8129 S   0  0  0  0  0  0
  -26.2992  -19.6194  -23.2452 C   0  0  0  0  0  0
  -28.0976  -23.1927  -22.8564 C   0  0  0  0  0  0
  -27.1324  -23.9494  -22.6182 O   0  5  0  0  0  0
  -29.2897  -23.5641  -22.9009 O   0  0  0  0  0  0
  -23.9893  -24.3624  -22.6131 N   0  0  0  0  0  0
  -23.9670  -25.1209  -23.7693 N   0  0  0  0  0  0
  -23.9913  -24.3664  -24.8289 N   0  0  0  0  0  0
  -25.1115  -21.5757  -25.3833 H   0  0  0  0  0  0
  -23.4305  -21.1791  -24.9831 H   0  0  0  0  0  0
  -23.7778  -22.2922  -26.3155 H   0  0  0  0  0  0
  -25.8410  -20.7330  -20.8463 H   0  0  0  0  0  0
  -26.1194  -22.4021  -21.1255 H   0  0  0  0  0  0
  -29.0598  -19.1823  -23.4370 H   0  0  0  0  0  0
  -29.2104  -17.9574  -28.0129 H   0  0  0  0  0  0
  -30.5423  -17.6933  -26.9025 H   0  0  0  0  0  0
  -28.8821  -17.5891  -26.3264 H   0  0  0  0  0  0
  -31.1964  -18.8993  -24.0565 H   0  0  0  0  0  0
  -33.8233  -19.7347  -23.9708 H   0  0  0  0  0  0
  -34.4657  -19.3005  -25.5413 H   0  0  0  0  0  0
  -32.5502  -17.0513  -26.6076 H   0  0  0  0  0  0
  -33.1044  -15.5457  -25.8935 H   0  0  0  0  0  0
  -26.5699  -18.9048  -22.4704 H   0  0  0  0  0  0
  -25.2225  -19.5343  -23.3842 H   0  0  0  0  0  0
  1  2  1  0  0  0
  1 31  1  0  0  0
  1 32  1  0  0  0
  1 33  1  0  0  0
  2 30  1  0  0  0
  2  3  1  0  0  0
  3  4  1  0  0  0
  3 28  2  0  0  0
  4  5  1  0  0  0
  5  6  1  0  0  0
  5 34  1  0  0  0
  5 35  1  0  0  0
  6 24  1  0  0  0
  6  7  2  0  0  0
  7  8  1  0  0  0
  7 25  1  0  0  0
  8 13  1  0  0  0
  8  9  1  0  0  0
  9 10  1  0  0  0
  9 23  1  0  0  0
  9 36  1  0  0  0
 10 11  1  0  0  0
 10 13  1  0  0  0
 10 15  1  0  0  0
 11 12  1  0  0  0
 12 37  1  0  0  0
 12 38  1  0  0  0
 12 39  1  0  0  0
 13 14  2  0  0  0
 15 16  1  0  0  0
 15 40  1  0  0  0
 16 17  1  0  0  0
 16 22  2  0  0  0
 17 18  1  0  0  0
 17 41  1  0  0  0
 17 42  1  0  0  0
 18 19  1  0  0  0
 19 20  1  0  0  0
 19 43  1  0  0  0
 19 44  1  0  0  0
 20 21  3  0  0  0
 23 24  1  0  0  0
 24 45  1  0  0  0
 24 46  1  0  0  0
 25 26  1  0  0  0
 25 27  2  0  0  0
 28 29  1  0  0  0
 29 30  2  0  0  0
M  CHG  1  26  -1
M  END
> <s_m_entry_id>
27471

> <s_m_entry_name>
data_maestro.3

> <s_m_Source_Path>
C:\Users\olshana1\Git\GramNeg-Accumulation\Gram Negative Permeation - OmpF

> <s_m_Source_File>
data_maestro.csv

> <i_m_Source_File_Index>
3

> <s_m_job_name>
glide-dock_Nicaido_neutral

> <s_i_glide_gridfile>
3POX-grid

> <i_i_glide_lignum>
3

> <i_i_glide_rotatable_bonds>
10

> <r_i_docking_score>
-4.91019629123311

> <r_i_glide_ligand_efficiency>
-0.16367320970777

> <r_i_glide_ligand_efficiency_sa>
-0.508570716981203

> <r_i_glide_ligand_efficiency_ln>
-1.11565009824184

> <r_i_glide_gscore>
-4.91019629123311

> <r_i_glide_lipo>
0

> <r_i_glide_hbond>
-0.877801012358578

> <r_i_glide_metal>
0

> <r_i_glide_rewards>
-0.200935019343049

> <r_i_glide_evdw>
-25.9381561279297

> <r_i_glide_ecoul>
-16.3449096679688

> <r_i_glide_erotb>
0.638850535935238

> <r_i_glide_esite>
-0.721666538874921

> <r_i_glide_emodel>
-66.6712309468168

> <r_i_glide_energy>
-42.2830657958984

> <r_i_glide_einternal>
5.10901260375977

> <i_i_glide_confnum>
210

> <i_i_glide_posenum>
364

> <r_i_glide_eff_state_penalty>
0

> <r_glide_res:A132_vdw>
-2.12156797396027

> <r_glide_res:A132_coul>
-39.8713267251351

> <r_glide_res:A132_hbond>
0

> <r_glide_res:A132_dist>
2.73020610247823

> <r_glide_res:A132_Eint>
-41.9928946990954

> <r_glide_res:A117_vdw>
-3.8998090708845

> <r_glide_res:A117_coul>
16.2132076844412

> <r_glide_res:A117_hbond>
0

> <r_glide_res:A117_dist>
2.26586580976664

> <r_glide_res:A117_Eint>
12.3133986135567

> <r_glide_res:A113_vdw>
-0.747604137844379

> <r_glide_res:A113_coul>
21.1011959847519

> <r_glide_res:A113_hbond>
0

> <r_glide_res:A113_dist>
5.16451556356748

> <r_glide_res:A113_Eint>
20.3535918469076

> <r_glide_res:A82_vdw>
-0.0794772738879678

> <r_glide_res:A82_coul>
-55.7601392978601

> <r_glide_res:A82_hbond>
-0.345018028178791

> <r_glide_res:A82_dist>
1.66752188546737

> <r_glide_res:A82_Eint>
-56.1846345999269

> <r_glide_res:A42_vdw>
-2.54561521808414

> <r_glide_res:A42_coul>
-39.0775485726975

> <r_glide_res:A42_hbond>
-0.16

> <r_glide_res:A42_dist>
1.85550640630866

> <r_glide_res:A42_Eint>
-41.7831637907816

> <r_glide_res:A16_vdw>
-1.60754182163911

> <r_glide_res:A16_coul>
-34.2357763753797

> <r_glide_res:A16_hbond>
-0.0527829841797867

> <r_glide_res:A16_dist>
2.26013105796096

> <r_glide_res:A16_Eint>
-35.8961011811986

> <s_m_source_file>
ligprep_Nicaido_neutral.maegz

> <i_m_source_file_index>
3

> <i_lp_mmshare_version>
58128

> <i_f3d_flags>
0

> <s_lp_Force_Field>
S-OPLS

> <r_lp_Energy>
32.161431

> <b_lp_Chiralities_Consistent>
1

> <s_lp_Variant>
Cefmetazole-1

> <s_epik_input>
bjFubmMobjFbQ0gzXSlTW0NIMl1DKD1DMkMoPU8pW09IXSlbQ0gyXVNbQ0BIXShOMjMpW0NAXShDMz1PKShPW0NIM10pW05IXUMoPU8pW0NIMl1TW0NIMl1DI04=

> <s_epik_cmdline>
J2VwaWtfcHl0aG9uJywgJy1waHQnLCAnMC4wJywgJy1waCcsICc3LjQnLCAnLW50JywgJy1tYScsICc1MDAnLCAnLWltYWUnLCAnPGluZmlsZS5tYWU+JywgJy1vbWFlJywgJzxvdXRmaWxlLm1hZT4n

> <r_lp_tautomer_probability>
1

> <r_epik_Ionization_Penalty>
  0.0000

> <r_epik_Ionization_Penalty_Charging>
  0.0000

> <r_epik_Ionization_Penalty_Neutral>
  0.0000

> <r_epik_State_Penalty>
  0.0000

> <r_epik_Charging_Adjusted_Penalty>
8.27330724987756e-06

> <i_epik_Tot_Q>
-1

> <i_epik_Tot_abs_Q>
1

> <s_epik_Chemistry_Notes>
This compound contains an acetal/aminal-like group ( X-CH(R)-Y where X, Y are N, S, or O) that may be acid/base labile, releasing an aldehyde.

> <s_m_subgroup_title>
glide-dock_Nicaido_neutral_pv1

> <s_m_subgroupid>
glide-dock_Nicaido_neutral_pv1

> <b_m_subgroup_collapsed>
0

$$$$
Aztreonam
                    3D
 Schrodinger Suite 2022-2.
 43 44  0  0  1  0            999 V2000
  -29.6154  -21.4591  -22.2383 C   0  0  0  0  0  0
  -28.9062  -20.4535  -23.1611 C   0  0  1  0  0  0
  -27.3659  -20.2798  -23.1197 C   0  0  2  0  0  0
  -27.3682  -20.9842  -24.4963 C   0  0  0  0  0  0
  -28.7408  -20.9296  -24.5329 N   0  0  0  0  0  0
  -29.9235  -21.7392  -25.3856 S   0  0  0  0  0  0
  -29.7773  -23.1431  -24.9650 O   0  0  0  0  0  0
  -29.5689  -21.5496  -26.8015 O   0  5  0  0  0  0
  -31.1945  -21.1075  -25.0096 O   0  0  0  0  0  0
  -26.5715  -21.5491  -25.2132 O   0  0  0  0  0  0
  -26.7766  -21.0984  -22.0586 N   0  0  0  0  0  0
  -25.5423  -21.6409  -22.0419 C   0  0  0  0  0  0
  -25.3956  -22.7913  -21.0356 C   0  0  0  0  0  0
  -26.4906  -22.8985  -20.0519 C   0  0  0  0  0  0
  -26.5550  -22.0533  -18.9715 C   0  0  0  0  0  0
  -27.9689  -22.3518  -18.0124 S   0  0  0  0  0  0
  -28.4183  -23.6314  -19.1235 C   0  0  0  0  0  0
  -29.5885  -24.3495  -18.9674 N   0  0  0  0  0  0
  -27.5512  -23.8135  -20.1192 N   0  0  0  0  0  0
  -24.4794  -23.6766  -20.9777 N   0  0  0  0  0  0
  -23.4724  -23.5525  -21.9523 O   0  0  0  0  0  0
  -22.5401  -24.6380  -21.8709 C   0  0  0  0  0  0
  -23.1689  -25.9490  -22.4131 C   0  0  0  0  0  0
  -23.1690  -26.9660  -21.6814 O   0  5  0  0  0  0
  -23.6261  -25.9409  -23.5801 O   0  0  0  0  0  0
  -21.3986  -24.2150  -22.8141 C   0  0  0  0  0  0
  -21.9738  -24.8167  -20.4376 C   0  0  0  0  0  0
  -24.6445  -21.2935  -22.8084 O   0  0  0  0  0  0
  -29.5714  -21.1345  -21.1974 H   0  0  0  0  0  0
  -30.6720  -21.5567  -22.4865 H   0  0  0  0  0  0
  -29.1741  -22.4546  -22.2934 H   0  0  0  0  0  0
  -29.4084  -19.4842  -23.1753 H   0  0  0  0  0  0
  -27.0437  -19.2369  -23.1232 H   0  0  0  0  0  0
  -27.4276  -21.3997  -21.3477 H   0  0  0  0  0  0
  -25.8755  -21.2622  -18.6865 H   0  0  0  0  0  0
  -30.0252  -24.6600  -19.8208 H   0  0  0  0  0  0
  -30.2634  -23.8244  -18.4131 H   0  0  0  0  0  0
  -20.6019  -24.9590  -22.8369 H   0  0  0  0  0  0
  -21.7534  -24.0524  -23.8330 H   0  0  0  0  0  0
  -20.9565  -23.2751  -22.4811 H   0  0  0  0  0  0
  -21.1534  -25.5343  -20.4254 H   0  0  0  0  0  0
  -21.5905  -23.8719  -20.0513 H   0  0  0  0  0  0
  -22.7251  -25.1787  -19.7346 H   0  0  0  0  0  0
  1  2  1  0  0  0
  1 29  1  0  0  0
  1 30  1  0  0  0
  1 31  1  0  0  0
  2  5  1  0  0  0
  2  3  1  0  0  0
  2 32  1  0  0  0
  3  4  1  0  0  0
  3 11  1  0  0  0
  3 33  1  0  0  0
  4  5  1  0  0  0
  4 10  2  0  0  0
  5  6  1  0  0  0
  6  7  2  0  0  0
  6  8  1  0  0  0
  6  9  2  0  0  0
 11 12  1  0  0  0
 11 34  1  0  0  0
 12 13  1  0  0  0
 12 28  2  0  0  0
 13 14  1  0  0  0
 13 20  2  3  0  0
 14 19  1  0  0  0
 14 15  2  0  0  0
 15 16  1  0  0  0
 15 35  1  0  0  0
 16 17  1  0  0  0
 17 18  1  0  0  0
 17 19  2  0  0  0
 18 36  1  0  0  0
 18 37  1  0  0  0
 20 21  1  0  0  0
 21 22  1  0  0  0
 22 23  1  0  0  0
 22 26  1  0  0  0
 22 27  1  0  0  0
 23 24  1  0  0  0
 23 25  2  0  0  0
 26 38  1  0  0  0
 26 39  1  0  0  0
 26 40  1  0  0  0
 27 41  1  0  0  0
 27 42  1  0  0  0
 27 43  1  0  0  0
M  CHG  2   8  -1  24  -1
M  END
> <s_m_entry_id>
27472

> <s_m_entry_name>
data_maestro.21

> <s_m_Source_Path>
C:\Users\olshana1\Git\GramNeg-Accumulation\Gram Negative Permeation - OmpF

> <s_m_Source_File>
data_maestro.csv

> <i_m_Source_File_Index>
21

> <s_m_job_name>
glide-dock_Nicaido_neutral

> <s_i_glide_gridfile>
3POX-grid

> <i_i_glide_lignum>
27

> <i_i_glide_rotatable_bonds>
8

> <r_i_docking_score>
-4.91014154213006

> <r_i_glide_ligand_efficiency>
-0.175362197933216

> <r_i_glide_ligand_efficiency_sa>
-0.532502915736412

> <r_i_glide_ligand_efficiency_ln>
-1.13340483594379

> <r_i_glide_gscore>
-4.91014154213006

> <r_i_glide_lipo>
0

> <r_i_glide_hbond>
-0.945751055522753

> <r_i_glide_metal>
0

> <r_i_glide_rewards>
-0.430429775738417

> <r_i_glide_evdw>
-18.9069957733154

> <r_i_glide_ecoul>
-15.8675079345703

> <r_i_glide_erotb>
0.635830109179744

> <r_i_glide_esite>
-0.844314841197314

> <r_i_glide_emodel>
-61.4550348416786

> <r_i_glide_energy>
-34.7745037078857

> <r_i_glide_einternal>
6.59414386749268

> <i_i_glide_confnum>
11

> <i_i_glide_posenum>
343

> <r_i_glide_eff_state_penalty>
0

> <r_glide_res:A132_vdw>
-1.15096627416774

> <r_glide_res:A132_coul>
-68.7498437859389

> <r_glide_res:A132_hbond>
-0.33186014707257

> <r_glide_res:A132_dist>
2.02474042792743

> <r_glide_res:A132_Eint>
-70.2326702071793

> <r_glide_res:A117_vdw>
-2.15271186672709

> <r_glide_res:A117_coul>
39.6761358877232

> <r_glide_res:A117_hbond>
0

> <r_glide_res:A117_dist>
2.55902437878798

> <r_glide_res:A117_Eint>
37.5234240209961

> <r_glide_res:A113_vdw>
-2.08645619800141

> <r_glide_res:A113_coul>
26.6209209047702

> <r_glide_res:A113_hbond>
-0.147773439304062

> <r_glide_res:A113_dist>
2.09007347468457

> <r_glide_res:A113_Eint>
24.3866912674647

> <r_glide_res:A82_vdw>
-2.78056568650774

> <r_glide_res:A82_coul>
-67.6799463256287

> <r_glide_res:A82_hbond>
0

> <r_glide_res:A82_dist>
2.8085651944105

> <r_glide_res:A82_Eint>
-70.4605120121365

> <r_glide_res:A42_vdw>
1.38404911509567

> <r_glide_res:A42_coul>
-75.8087062646937

> <r_glide_res:A42_hbond>
-0.211745104212642

> <r_glide_res:A42_dist>
1.75659428346147

> <r_glide_res:A42_Eint>
-74.6364022538106

> <r_glide_res:A16_vdw>
3.43929136264734

> <r_glide_res:A16_coul>
-67.5131020641112

> <r_glide_res:A16_hbond>
-0.176559316686239

> <r_glide_res:A16_dist>
1.55311863337248

> <r_glide_res:A16_Eint>
-64.2503700181501

> <s_m_source_file>
ligprep_Nicaido_neutral.maegz

> <i_m_source_file_index>
21

> <i_lp_mmshare_version>
58128

> <i_f3d_flags>
0

> <s_lp_Force_Field>
S-OPLS

> <r_lp_Energy>
50.237147

> <b_lp_Chiralities_Consistent>
1

> <s_lp_Variant>
Aztreonam-2

> <s_epik_input>
Tz1TKD1PKShbT0hdKU4xQyg9TylbQ0BASF0oW0NAQEhdMVtDSDNdKVtOSF1DKD1PKS9DKGMyW2NIXXNjKG4yKVtOSDJdKT1OL09DKFtDSDNdKShbQ0gzXSlDKD1PKVtPSF0=

> <s_epik_cmdline>
J2VwaWtfcHl0aG9uJywgJy1waHQnLCAnMC4wJywgJy1waCcsICc3LjQnLCAnLW50JywgJy1tYScsICc1MDAnLCAnLWltYWUnLCAnPGluZmlsZS5tYWU+JywgJy1vbWFlJywgJzxvdXRmaWxlLm1hZT4n

> <r_lp_tautomer_probability>
1

> <r_epik_Ionization_Penalty>
  0.0004

> <r_epik_Ionization_Penalty_Charging>
  0.0000

> <r_epik_Ionization_Penalty_Neutral>
  0.0004

> <r_epik_State_Penalty>
  0.0000

> <r_epik_Charging_Adjusted_Penalty>
4.45674509427693e-05

> <i_epik_Tot_Q>
-2

> <i_epik_Tot_abs_Q>
2

> <s_epik_Chemistry_Notes>
This compound has an imine and may undergo hydrolysis.

> <s_m_subgroup_title>
glide-dock_Nicaido_neutral_pv1

> <s_m_subgroupid>
glide-dock_Nicaido_neutral_pv1

> <b_m_subgroup_collapsed>
0

$$$$
Ceftriaxone
                    3D
 Schrodinger Suite 2022-2.
 52 55  0  0  1  0            999 V2000
  -20.8972  -24.2141  -22.0897 C   0  0  0  0  0  0
  -21.9861  -23.7656  -22.9489 N   0  0  0  0  0  0
  -22.1682  -22.3886  -23.2601 C   0  0  0  0  0  0
  -21.3170  -21.2163  -22.1367 S   0  0  0  0  0  0
  -22.1501  -21.4261  -20.5261 C   0  0  0  0  0  0
  -23.6803  -21.3474  -20.5681 C   0  0  0  0  0  0
  -24.5114  -22.3531  -20.1693 C   0  0  0  0  0  0
  -25.9188  -22.2439  -20.2473 N   0  0  0  0  0  0
  -26.6183  -20.9742  -20.3517 C   0  0  2  0  0  0
  -27.9293  -21.7774  -20.5068 C   0  0  2  0  0  0
  -27.0679  -22.9992  -20.0780 C   0  0  0  0  0  0
  -27.2606  -24.1459  -19.7320 O   0  0  0  0  0  0
  -28.4308  -21.7381  -21.8928 N   0  0  0  0  0  0
  -28.8315  -22.7550  -22.6827 C   0  0  0  0  0  0
  -29.4043  -22.3445  -24.0334 C   0  0  0  0  0  0
  -29.1836  -20.9404  -24.4879 C   0  0  0  0  0  0
  -27.9241  -20.3951  -24.6007 C   0  0  0  0  0  0
  -27.9710  -18.7663  -25.2133 S   0  0  0  0  0  0
  -29.7120  -18.9040  -25.3462 C   0  0  0  0  0  0
  -30.4931  -17.8921  -25.8670 N   0  0  0  0  0  0
  -30.1917  -20.0729  -24.9300 N   0  0  0  0  0  0
  -30.0567  -23.2090  -24.7080 N   0  0  0  0  0  0
  -30.5097  -22.7471  -25.9536 O   0  0  0  0  0  0
  -31.5972  -23.5688  -26.3414 C   0  0  0  0  0  0
  -28.7662  -23.9496  -22.3765 O   0  0  0  0  0  0
  -25.8735  -20.0150  -21.7026 S   0  0  0  0  0  0
  -24.1872  -19.9868  -21.0528 C   0  0  0  0  0  0
  -23.9716  -23.7418  -19.6639 C   0  0  0  0  0  0
  -24.3689  -24.7495  -20.2850 O   0  5  0  0  0  0
  -23.2072  -23.7287  -18.6732 O   0  0  0  0  0  0
  -22.8362  -21.9479  -24.2860 N   0  0  0  0  0  0
  -23.4723  -22.8636  -25.1171 C   0  0  0  0  0  0
  -23.5621  -24.3487  -24.6392 C   0  0  0  0  0  0
  -24.3459  -25.0898  -25.2356 O   0  0  0  0  0  0
  -22.7689  -24.7501  -23.6131 N   0  5  0  0  0  0
  -23.9689  -22.5647  -26.2020 O   0  0  0  0  0  0
  -21.2020  -24.2000  -21.0447 H   0  0  0  0  0  0
  -20.6253  -25.2417  -22.3298 H   0  0  0  0  0  0
  -19.9985  -23.6088  -22.2100 H   0  0  0  0  0  0
  -21.7980  -20.6308  -19.8694 H   0  0  0  0  0  0
  -21.7734  -22.3406  -20.0832 H   0  0  0  0  0  0
  -26.5709  -20.4241  -19.4086 H   0  0  0  0  0  0
  -28.6792  -21.4734  -19.7743 H   0  0  0  0  0  0
  -28.5179  -20.8032  -22.2678 H   0  0  0  0  0  0
  -26.9672  -20.8318  -24.3517 H   0  0  0  0  0  0
  -31.4693  -17.8871  -25.6119 H   0  0  0  0  0  0
  -30.0918  -16.9627  -25.9351 H   0  0  0  0  0  0
  -31.9718  -23.2526  -27.3144 H   0  0  0  0  0  0
  -31.3036  -24.6170  -26.4183 H   0  0  0  0  0  0
  -32.4206  -23.4910  -25.6292 H   0  0  0  0  0  0
  -24.1380  -19.2830  -20.2219 H   0  0  0  0  0  0
  -23.5518  -19.5884  -21.8426 H   0  0  0  0  0  0
  1  2  1  0  0  0
  1 37  1  0  0  0
  1 38  1  0  0  0
  1 39  1  0  0  0
  2 35  1  0  0  0
  2  3  1  0  0  0
  3  4  1  0  0  0
  3 31  2  0  0  0
  4  5  1  0  0  0
  5  6  1  0  0  0
  5 40  1  0  0  0
  5 41  1  0  0  0
  6 27  1  0  0  0
  6  7  2  0  0  0
  7  8  1  0  0  0
  7 28  1  0  0  0
  8 11  1  0  0  0
  8  9  1  0  0  0
  9 10  1  0  0  0
  9 26  1  0  0  0
  9 42  1  0  0  0
 10 11  1  0  0  0
 10 13  1  0  0  0
 10 43  1  0  0  0
 11 12  2  0  0  0
 13 14  1  0  0  0
 13 44  1  0  0  0
 14 15  1  0  0  0
 14 25  2  0  0  0
 15 16  1  0  0  0
 15 22  2  3  0  0
 16 21  1  0  0  0
 16 17  2  0  0  0
 17 18  1  0  0  0
 17 45  1  0  0  0
 18 19  1  0  0  0
 19 20  1  0  0  0
 19 21  2  0  0  0
 20 46  1  0  0  0
 20 47  1  0  0  0
 22 23  1  0  0  0
 23 24  1  0  0  0
 24 48  1  0  0  0
 24 49  1  0  0  0
 24 50  1  0  0  0
 26 27  1  0  0  0
 27 51  1  0  0  0
 27 52  1  0  0  0
 28 29  1  0  0  0
 28 30  2  0  0  0
 31 32  1  0  0  0
 32 33  1  0  0  0
 32 36  2  0  0  0
 33 34  2  0  0  0
 33 35  1  0  0  0
M  CHG  2  29  -1  35  -1
M  END
> <s_m_entry_id>
27473

> <s_m_entry_name>
data_maestro.22

> <s_m_Source_Path>
C:\Users\olshana1\Git\GramNeg-Accumulation\Gram Negative Permeation - OmpF

> <s_m_Source_File>
data_maestro.csv

> <i_m_Source_File_Index>
22

> <s_m_job_name>
glide-dock_Nicaido_neutral

> <s_i_glide_gridfile>
3POX-grid

> <i_i_glide_lignum>
28

> <i_i_glide_rotatable_bonds>
9

> <r_i_docking_score>
-4.90825639924587

> <r_i_glide_ligand_efficiency>
-0.136340455534608

> <r_i_glide_ligand_efficiency_sa>
-0.450186264718677

> <r_i_glide_ligand_efficiency_ln>
-1.07084894055203

> <r_i_glide_gscore>
-4.90825639924587

> <r_i_glide_lipo>
0

> <r_i_glide_hbond>
-1.01658875564747

> <r_i_glide_metal>
0

> <r_i_glide_rewards>
0.0565322644080447

> <r_i_glide_evdw>
-30.2372398376465

> <r_i_glide_ecoul>
-14.0833425521851

> <r_i_glide_erotb>
0.472124986767549

> <r_i_glide_esite>
-0.795961520063916

> <r_i_glide_emodel>
-71.6457882501155

> <r_i_glide_energy>
-44.3205823898315

> <r_i_glide_einternal>
13.0939807891846

> <i_i_glide_confnum>
224

> <i_i_glide_posenum>
354

> <r_i_glide_eff_state_penalty>
0

> <r_glide_res:A132_vdw>
0.130846659828187

> <r_glide_res:A132_coul>
-79.6688581802287

> <r_glide_res:A132_hbond>
-0.30303452946576

> <r_glide_res:A132_dist>
1.96163221790543

> <r_glide_res:A132_Eint>
-79.8410460498663

> <r_glide_res:A117_vdw>
-4.03996636040174

> <r_glide_res:A117_coul>
36.9336813645717

> <r_glide_res:A117_hbond>
0

> <r_glide_res:A117_dist>
2.46713202400571

> <r_glide_res:A117_Eint>
32.89371500417

> <r_glide_res:A113_vdw>
-1.78192407530193

> <r_glide_res:A113_coul>
31.0425494736806

> <r_glide_res:A113_hbond>
0

> <r_glide_res:A113_dist>
2.94387755636049

> <r_glide_res:A113_Eint>
29.2606253983787

> <r_glide_res:A82_vdw>
-3.43217899174096

> <r_glide_res:A82_coul>
-68.2906062226189

> <r_glide_res:A82_hbond>
-0.233684718806269

> <r_glide_res:A82_dist>
2.19723437943269

> <r_glide_res:A82_Eint>
-71.9564699331661

> <r_glide_res:A42_vdw>
-1.14578194299614

> <r_glide_res:A42_coul>
-57.6980438464926

> <r_glide_res:A42_hbond>
-0.0926987838091319

> <r_glide_res:A42_dist>
1.89229107782337

> <r_glide_res:A42_Eint>
-58.9365245732979

> <r_glide_res:A16_vdw>
-1.68883258839401

> <r_glide_res:A16_coul>
-38.2016080410234

> <r_glide_res:A16_hbond>
0

> <r_glide_res:A16_dist>
2.63460585388357

> <r_glide_res:A16_Eint>
-39.8904406294174

> <s_m_source_file>
ligprep_Nicaido_neutral.maegz

> <i_m_source_file_index>
22

> <i_lp_mmshare_version>
58128

> <i_f3d_flags>
0

> <s_lp_Force_Field>
S-OPLS

> <r_lp_Energy>
109.903222

> <b_lp_Chiralities_Consistent>
1

> <s_lp_Variant>
Ceftriaxone-1

> <s_epik_input>
W09IXWMobjEpYyg9TyluYyhuMVtDSDNdKVNbQ0gyXUMoPUMyQyg9TylbT0hdKVtDSDJdU1tDQEhdKE4yMylbQ0BIXShDMz1PKVtOSF1DKD1PKS9DKD1OL09bQ0gzXSljNFtjSF1zYyhuNClbTkgyXQ==

> <s_epik_cmdline>
J2VwaWtfcHl0aG9uJywgJy1waHQnLCAnMC4wJywgJy1waCcsICc3LjQnLCAnLW50JywgJy1tYScsICc1MDAnLCAnLWltYWUnLCAnPGluZmlsZS5tYWU+JywgJy1vbWFlJywgJzxvdXRmaWxlLm1hZT4n

> <r_lp_tautomer_probability>
1

> <r_epik_Ionization_Penalty>
  0.0014

> <r_epik_Ionization_Penalty_Charging>
  0.0010

> <r_epik_Ionization_Penalty_Neutral>
  0.0004

> <r_epik_State_Penalty>
  0.0000

> <r_epik_Charging_Adjusted_Penalty>
0.000994184415634904

> <i_epik_Tot_Q>
-2

> <i_epik_Tot_abs_Q>
2

> <s_epik_Chemistry_Notes>
This compound has an imine and may undergo hydrolysis. This compound contains an acetal/aminal-like group ( X-CH(R)-Y where X, Y are N, S, or O) that may be acid/base labile, releasing an aldehyde.

> <s_m_subgroup_title>
glide-dock_Nicaido_neutral_pv1

> <s_m_subgroupid>
glide-dock_Nicaido_neutral_pv1

> <b_m_subgroup_collapsed>
0

$$$$
Cephaloglycin
                    3D
 Schrodinger Suite 2022-2.
 46 48  0  0  1  0            999 V2000
  -29.9588  -23.9092  -20.3980 C   0  0  0  0  0  0
  -29.0500  -23.3493  -21.4834 C   0  0  0  0  0  0
  -28.7241  -22.0659  -21.2771 O   0  0  0  0  0  0
  -28.0912  -21.2975  -22.2953 C   0  0  0  0  0  0
  -29.1296  -20.4553  -23.0296 C   0  0  0  0  0  0
  -29.4948  -20.5795  -24.3345 C   0  0  0  0  0  0
  -30.6140  -19.8394  -24.7484 N   0  0  0  0  0  0
  -30.6586  -18.3979  -24.5536 C   0  0  1  0  0  0
  -32.0870  -18.4674  -25.1056 C   0  0  2  0  0  0
  -31.6815  -19.8632  -25.6286 C   0  0  0  0  0  0
  -32.1019  -20.6862  -26.4132 O   0  0  0  0  0  0
  -32.3698  -17.3909  -26.0592 N   0  0  0  0  0  0
  -32.7026  -17.4349  -27.3663 C   0  0  0  0  0  0
  -33.5876  -16.2729  -27.8925 C   0  0  2  0  0  0
  -34.5353  -15.9704  -26.7683 C   0  0  0  0  0  0
  -35.4847  -16.9152  -26.2993 C   0  0  0  0  0  0
  -36.2275  -16.6875  -25.1240 C   0  0  0  0  0  0
  -36.0601  -15.4864  -24.4104 C   0  0  0  0  0  0
  -35.1694  -14.5097  -24.8913 C   0  0  0  0  0  0
  -34.4315  -14.7502  -26.0666 C   0  0  0  0  0  0
  -34.2939  -16.6380  -29.1221 N   0  0  0  0  0  0
  -32.3885  -18.3500  -28.1308 O   0  0  0  0  0  0
  -30.3688  -17.9549  -22.8059 S   0  0  0  0  0  0
  -29.9153  -19.5531  -22.0788 C   0  0  0  0  0  0
  -28.8533  -21.5685  -25.3905 C   0  0  0  0  0  0
  -27.6751  -21.9495  -25.2121 O   0  5  0  0  0  0
  -29.5687  -21.9490  -26.3468 O   0  0  0  0  0  0
  -28.6676  -24.0594  -22.4139 O   0  0  0  0  0  0
  -30.3704  -24.8754  -20.6898 H   0  0  0  0  0  0
  -29.4117  -24.0229  -19.4618 H   0  0  0  0  0  0
  -30.7887  -23.2236  -20.2206 H   0  0  0  0  0  0
  -27.4877  -21.9275  -22.9414 H   0  0  0  0  0  0
  -27.3915  -20.6150  -21.8123 H   0  0  0  0  0  0
  -29.9494  -17.8891  -25.2124 H   0  0  0  0  0  0
  -32.8233  -18.5037  -24.3013 H   0  0  0  0  0  0
  -32.5966  -16.5167  -25.6063 H   0  0  0  0  0  0
  -32.9352  -15.4240  -28.1030 H   0  0  0  0  0  0
  -35.5963  -17.8584  -26.8155 H   0  0  0  0  0  0
  -36.9154  -17.4382  -24.7631 H   0  0  0  0  0  0
  -36.6173  -15.3111  -23.5014 H   0  0  0  0  0  0
  -35.0446  -13.5792  -24.3568 H   0  0  0  0  0  0
  -33.7381  -13.9970  -26.4134 H   0  0  0  0  0  0
  -34.0785  -16.0035  -29.8790 H   0  0  0  0  0  0
  -33.9710  -17.5465  -29.4293 H   0  0  0  0  0  0
  -30.8176  -20.0774  -21.7622 H   0  0  0  0  0  0
  -29.3401  -19.3471  -21.1747 H   0  0  0  0  0  0
  1  2  1  0  0  0
  1 29  1  0  0  0
  1 30  1  0  0  0
  1 31  1  0  0  0
  2  3  1  0  0  0
  2 28  2  0  0  0
  3  4  1  0  0  0
  4  5  1  0  0  0
  4 32  1  0  0  0
  4 33  1  0  0  0
  5 24  1  0  0  0
  5  6  2  0  0  0
  6  7  1  0  0  0
  6 25  1  0  0  0
  7 10  1  0  0  0
  7  8  1  0  0  0
  8  9  1  0  0  0
  8 23  1  0  0  0
  8 34  1  0  0  0
  9 10  1  0  0  0
  9 12  1  0  0  0
  9 35  1  0  0  0
 10 11  2  0  0  0
 12 13  1  0  0  0
 12 36  1  0  0  0
 13 14  1  0  0  0
 13 22  2  0  0  0
 14 15  1  0  0  0
 14 21  1  0  0  0
 14 37  1  0  0  0
 15 20  1  0  0  0
 15 16  2  0  0  0
 16 17  1  0  0  0
 16 38  1  0  0  0
 17 18  2  0  0  0
 17 39  1  0  0  0
 18 19  1  0  0  0
 18 40  1  0  0  0
 19 20  2  0  0  0
 19 41  1  0  0  0
 20 42  1  0  0  0
 21 43  1  0  0  0
 21 44  1  0  0  0
 23 24  1  0  0  0
 24 45  1  0  0  0
 24 46  1  0  0  0
 25 26  1  0  0  0
 25 27  2  0  0  0
M  CHG  1  26  -1
M  END
> <s_m_entry_id>
27474

> <s_m_entry_name>
data_maestro.16

> <s_m_Source_Path>
C:\Users\olshana1\Git\GramNeg-Accumulation\Gram Negative Permeation - OmpF

> <s_m_Source_File>
data_maestro.csv

> <i_m_Source_File_Index>
16

> <s_m_job_name>
glide-dock_Nicaido_neutral

> <s_i_glide_gridfile>
3POX-grid

> <i_i_glide_lignum>
21

> <i_i_glide_rotatable_bonds>
8

> <r_i_docking_score>
-4.90719759330784

> <r_i_glide_ligand_efficiency>
-0.175257056903851

> <r_i_glide_ligand_efficiency_sa>
-0.532183645646506

> <r_i_glide_ligand_efficiency_ln>
-1.13272528611753

> <r_i_glide_gscore>
-5.01859759330784

> <r_i_glide_lipo>
-0.602358086360505

> <r_i_glide_hbond>
-0.789548692046202

> <r_i_glide_metal>
0

> <r_i_glide_rewards>
-0.431874687272441

> <r_i_glide_evdw>
-29.9831676483154

> <r_i_glide_ecoul>
-12.801097869873

> <r_i_glide_erotb>
0.600502745111863

> <r_i_glide_esite>
-0.375995809843828

> <r_i_glide_emodel>
-60.0422744601315

> <r_i_glide_energy>
-42.7842655181885

> <r_i_glide_einternal>
19.0272006988525

> <i_i_glide_confnum>
130

> <i_i_glide_posenum>
6

> <r_i_glide_eff_state_penalty>
0.1114

> <r_glide_res:A132_vdw>
-0.915796230396091

> <r_glide_res:A132_coul>
-22.2876818607285

> <r_glide_res:A132_hbond>
0

> <r_glide_res:A132_dist>
2.29658667970252

> <r_glide_res:A132_Eint>
-23.2034780911246

> <r_glide_res:A117_vdw>
-3.399326878327

> <r_glide_res:A117_coul>
25.0966913141229

> <r_glide_res:A117_hbond>
0

> <r_glide_res:A117_dist>
2.65437365690185

> <r_glide_res:A117_Eint>
21.6973644357959

> <r_glide_res:A113_vdw>
-2.39466478400189

> <r_glide_res:A113_coul>
17.7146216859417

> <r_glide_res:A113_hbond>
0

> <r_glide_res:A113_dist>
2.45132729089311

> <r_glide_res:A113_Eint>
15.3199569019398

> <r_glide_res:A82_vdw>
-1.32756773855332

> <r_glide_res:A82_coul>
-36.8590580665215

> <r_glide_res:A82_hbond>
-0.231415018871819

> <r_glide_res:A82_dist>
2.12773631664715

> <r_glide_res:A82_Eint>
-38.4180408239466

> <r_glide_res:A42_vdw>
3.74213906067138

> <r_glide_res:A42_coul>
-57.5215216020184

> <r_glide_res:A42_hbond>
-0.354940273195932

> <r_glide_res:A42_dist>
1.64027726854489

> <r_glide_res:A42_Eint>
-54.1343228145429

> <r_glide_res:A16_vdw>
-1.50024896645238

> <r_glide_res:A16_coul>
-56.5402522259128

> <r_glide_res:A16_hbond>
-0.200921536740488

> <r_glide_res:A16_dist>
2.07072490901762

> <r_glide_res:A16_Eint>
-58.2414227291057

> <s_m_source_file>
ligprep_Nicaido_neutral.maegz

> <i_m_source_file_index>
16

> <i_lp_mmshare_version>
58128

> <i_f3d_flags>
0

> <s_lp_Force_Field>
S-OPLS

> <r_lp_Energy>
48.658328

> <b_lp_Chiralities_Consistent>
1

> <s_lp_Variant>
Cephaloglycin-1

> <s_epik_input>
W0NIM11DKD1PKU9bQ0gyXUMoPUMxQyg9TylbT0hdKVtDSDJdU1tDQEBIXShOMTIpW0NASF0oQzI9TylbTkhdQyg9TylbQ0BASF0oW05IMl0pYzNbY0hdW2NIXVtjSF1bY0hdW2NIXTM=

> <s_epik_cmdline>
J2VwaWtfcHl0aG9uJywgJy1waHQnLCAnMC4wJywgJy1waCcsICc3LjQnLCAnLW50JywgJy1tYScsICc1MDAnLCAnLWltYWUnLCAnPGluZmlsZS5tYWU+JywgJy1vbWFlJywgJzxvdXRmaWxlLm1hZT4n

> <r_epik_Ionization_Penalty>
  0.1114

> <r_epik_Ionization_Penalty_Charging>
  0.0000

> <r_epik_Ionization_Penalty_Neutral>
  0.1114

> <r_epik_State_Penalty>
  0.1114

> <r_epik_Charging_Adjusted_Penalty>
0.111378695294398

> <i_epik_Tot_Q>
-1

> <i_epik_Tot_abs_Q>
1

> <s_epik_Chemistry_Notes>
This compound has an ester and may undergo hydrolysis at high or low pH. This compound contains an acetal/aminal-like group ( X-CH(R)-Y where X, Y are N, S, or O) that may be acid/base labile, releasing an aldehyde.

> <s_m_subgroup_title>
glide-dock_Nicaido_neutral_pv1

> <s_m_subgroupid>
glide-dock_Nicaido_neutral_pv1

> <b_m_subgroup_collapsed>
0

$$$$
Ofloxacin
                    3D
 Schrodinger Suite 2022-2.
 46 49  0  0  1  0            999 V2000
  -23.1130  -22.3267  -15.6087 C   0  0  0  0  0  0
  -24.1357  -22.5983  -16.7245 C   0  0  1  0  0  0
  -24.7334  -21.2585  -17.1505 C   0  0  0  0  0  0
  -25.7727  -21.4955  -18.0652 O   0  0  0  0  0  0
  -25.4154  -22.2907  -19.1219 C   0  0  0  0  0  0
  -24.3332  -23.2134  -19.0832 C   0  0  0  0  0  0
  -23.5660  -23.3250  -17.8754 N   0  0  0  0  0  0
  -22.4757  -24.1908  -17.7773 C   0  0  0  0  0  0
  -22.0189  -25.0304  -18.7301 C   0  0  0  0  0  0
  -22.7651  -25.0251  -20.0212 C   0  0  0  0  0  0
  -23.9076  -24.0628  -20.1320 C   0  0  0  0  0  0
  -24.6683  -23.9457  -21.3163 C   0  0  0  0  0  0
  -25.7769  -23.0827  -21.4159 C   0  0  0  0  0  0
  -26.4832  -23.0681  -22.5742 F   0  0  0  0  0  0
  -26.1487  -22.2434  -20.3386 C   0  0  0  0  0  0
  -27.2224  -21.3468  -20.5293 N   0  0  0  0  0  0
  -28.5798  -21.8785  -20.5100 C   0  0  0  0  0  0
  -29.5436  -20.9394  -21.2697 C   0  0  0  0  0  0
  -29.4284  -19.5281  -20.8134 N   0  3  0  0  0  0
  -28.0247  -19.0453  -20.8239 C   0  0  0  0  0  0
  -27.1048  -19.9811  -20.0271 C   0  0  0  0  0  0
  -30.3565  -18.6173  -21.5207 C   0  0  0  0  0  0
  -22.4972  -25.7791  -20.9604 O   0  0  0  0  0  0
  -20.7723  -25.9566  -18.4046 C   0  0  0  0  0  0
  -20.3664  -26.7518  -19.2806 O   0  5  0  0  0  0
  -20.3216  -25.9007  -17.2373 O   0  0  0  0  0  0
  -23.5526  -21.7313  -14.8151 H   0  0  0  0  0  0
  -22.7733  -23.2439  -15.1414 H   0  0  0  0  0  0
  -22.2420  -21.7852  -15.9807 H   0  0  0  0  0  0
  -24.9366  -23.2104  -16.3087 H   0  0  0  0  0  0
  -25.1680  -20.7487  -16.2943 H   0  0  0  0  0  0
  -23.9826  -20.5970  -17.5860 H   0  0  0  0  0  0
  -21.9648  -24.1566  -16.8310 H   0  0  0  0  0  0
  -24.4095  -24.5465  -22.1757 H   0  0  0  0  0  0
  -28.6089  -22.8764  -20.9467 H   0  0  0  0  0  0
  -28.9030  -21.9738  -19.4714 H   0  0  0  0  0  0
  -30.5708  -21.2811  -21.1306 H   0  0  0  0  0  0
  -29.3317  -20.9849  -22.3386 H   0  0  0  0  0  0
  -27.9577  -18.0351  -20.4226 H   0  0  0  0  0  0
  -27.6800  -19.0132  -21.8577 H   0  0  0  0  0  0
  -27.3909  -19.9524  -18.9742 H   0  0  0  0  0  0
  -26.0720  -19.6366  -20.0953 H   0  0  0  0  0  0
  -30.0789  -18.5042  -22.5689 H   0  0  0  0  0  0
  -31.3758  -19.0013  -21.4727 H   0  0  0  0  0  0
  -30.3679  -17.6297  -21.0624 H   0  0  0  0  0  0
  -29.7680  -19.5495  -19.8433 H   0  0  0  0  0  0
  1  2  1  0  0  0
  1 27  1  0  0  0
  1 28  1  0  0  0
  1 29  1  0  0  0
  2  7  1  0  0  0
  2  3  1  0  0  0
  2 30  1  0  0  0
  3  4  1  0  0  0
  3 31  1  0  0  0
  3 32  1  0  0  0
  4  5  1  0  0  0
  5 15  1  0  0  0
  5  6  2  0  0  0
  6 11  1  0  0  0
  6  7  1  0  0  0
  7  8  1  0  0  0
  8  9  2  0  0  0
  8 33  1  0  0  0
  9 10  1  0  0  0
  9 24  1  0  0  0
 10 11  1  0  0  0
 10 23  2  0  0  0
 11 12  2  0  0  0
 12 13  1  0  0  0
 12 34  1  0  0  0
 13 14  1  0  0  0
 13 15  2  0  0  0
 15 16  1  0  0  0
 16 21  1  0  0  0
 16 17  1  0  0  0
 17 18  1  0  0  0
 17 35  1  0  0  0
 17 36  1  0  0  0
 18 19  1  0  0  0
 18 37  1  0  0  0
 18 38  1  0  0  0
 19 20  1  0  0  0
 19 22  1  0  0  0
 19 46  1  0  0  0
 20 21  1  0  0  0
 20 39  1  0  0  0
 20 40  1  0  0  0
 21 41  1  0  0  0
 21 42  1  0  0  0
 22 43  1  0  0  0
 22 44  1  0  0  0
 22 45  1  0  0  0
 24 25  1  0  0  0
 24 26  2  0  0  0
M  CHG  2  19   1  25  -1
M  END
> <s_m_entry_id>
27475

> <s_m_entry_name>
data_maestro.32

> <s_m_Source_Path>
C:\Users\olshana1\Git\GramNeg-Accumulation\Gram Negative Permeation - OmpF

> <s_m_Source_File>
data_maestro.csv

> <i_m_Source_File_Index>
32

> <s_m_job_name>
glide-dock_Nicaido_neutral

> <s_i_glide_gridfile>
3POX-grid

> <i_i_glide_lignum>
41

> <i_i_glide_rotatable_bonds>
2

> <r_i_docking_score>
-4.90001197734515

> <r_i_glide_ligand_efficiency>
-0.18846199912866

> <r_i_glide_ligand_efficiency_sa>
-0.558317930856496

> <r_i_glide_ligand_efficiency_ln>
-1.15075173462881

> <r_i_glide_gscore>
-4.90001197734515

> <r_i_glide_lipo>
0

> <r_i_glide_hbond>
-0.4

> <r_i_glide_metal>
0

> <r_i_glide_rewards>
-0.945221570454544

> <r_i_glide_evdw>
-21.331636428833

> <r_i_glide_ecoul>
-15.2347431182861

> <r_i_glide_erotb>
0.146950134654495

> <r_i_glide_esite>
-0.34994725236053

> <r_i_glide_emodel>
-51.4509202320816

> <r_i_glide_energy>
-36.5663795471191

> <r_i_glide_einternal>
17.0161247253418

> <i_i_glide_confnum>
2

> <i_i_glide_posenum>
254

> <r_i_glide_eff_state_penalty>
0

> <r_glide_res:A132_vdw>
-1.55040400743935

> <r_glide_res:A132_coul>
-1.89675339840527

> <r_glide_res:A132_hbond>
0

> <r_glide_res:A132_dist>
2.23032827701776

> <r_glide_res:A132_Eint>
-3.44715740584462

> <r_glide_res:A117_vdw>
-1.14571637045291

> <r_glide_res:A117_coul>
-12.2932198076273

> <r_glide_res:A117_hbond>
0

> <r_glide_res:A117_dist>
2.40619823769874

> <r_glide_res:A117_Eint>
-13.4389361780802

> <r_glide_res:A113_vdw>
0.560358928988854

> <r_glide_res:A113_coul>
-39.1484781457621

> <r_glide_res:A113_hbond>
-0.2

> <r_glide_res:A113_dist>
1.66364560035726

> <r_glide_res:A113_Eint>
-38.7881192167732

> <r_glide_res:A82_vdw>
-0.8726624612164

> <r_glide_res:A82_coul>
1.25647987456008

> <r_glide_res:A82_hbond>
0

> <r_glide_res:A82_dist>
2.54150706276437

> <r_glide_res:A82_Eint>
0.383817413343679

> <r_glide_res:A42_vdw>
-0.301200826624388

> <r_glide_res:A42_coul>
2.97695448057134

> <r_glide_res:A42_hbond>
0

> <r_glide_res:A42_dist>
3.59660854424868

> <r_glide_res:A42_Eint>
2.67575365394696

> <r_glide_res:A16_vdw>
-0.0497674091982011

> <r_glide_res:A16_coul>
7.82223623530695

> <r_glide_res:A16_hbond>
0

> <r_glide_res:A16_dist>
5.86293625106751

> <r_glide_res:A16_Eint>
7.77246882610874

> <s_m_source_file>
ligprep_Nicaido_neutral.maegz

> <i_m_source_file_index>
32

> <i_lp_mmshare_version>
58128

> <i_f3d_flags>
0

> <s_lp_Force_Field>
S-OPLS

> <r_lp_Energy>
60.370079

> <b_lp_Chiralities_Consistent>
1

> <s_lp_Variant>
Ofloxacin-1

> <s_epik_input>
TzFbQ0gyXVtDQEhdKFtDSDNdKW4oYzJjMTMpW2NIXWMoQyg9TylbT0hdKWMoPU8pYzJbY0hdYyhGKWMzTjRbQ0gyXVtDSDJdTihbQ0gzXSlbQ0gyXVtDSDJdNA==

> <s_epik_cmdline>
J2VwaWtfcHl0aG9uJywgJy1waHQnLCAnMC4wJywgJy1waCcsICc3LjQnLCAnLW50JywgJy1tYScsICc1MDAnLCAnLWltYWUnLCAnPGluZmlsZS5tYWU+JywgJy1vbWFlJywgJzxvdXRmaWxlLm1hZT4n

> <r_lp_tautomer_probability>
1

> <r_epik_Ionization_Penalty>
  0.1907

> <r_epik_Ionization_Penalty_Charging>
  0.1907

> <r_epik_Ionization_Penalty_Neutral>
  0.0000

> <r_epik_State_Penalty>
  0.0000

> <r_epik_Charging_Adjusted_Penalty>
0.190712686691679

> <i_epik_Tot_Q>
0

> <i_epik_Tot_abs_Q>
2

> <s_m_subgroup_title>
glide-dock_Nicaido_neutral_pv1

> <s_m_subgroupid>
glide-dock_Nicaido_neutral_pv1

> <b_m_subgroup_collapsed>
0

$$$$
SCE-796
                    3D
 Schrodinger Suite 2022-2.
 54 57  0  0  1  0            999 V2000
  -29.1788  -21.3951  -26.5802 O   0  0  0  0  0  0
  -29.1451  -20.5287  -25.7312 C   0  0  0  0  0  0
  -28.9593  -18.9890  -25.6357 C   0  0  2  0  0  0
  -28.9307  -19.2115  -24.1090 C   0  0  2  0  0  0
  -29.3011  -20.5928  -24.3671 N   0  0  0  0  0  0
  -29.4483  -21.5395  -23.3466 C   0  0  0  0  0  0
  -28.7426  -22.9428  -23.6003 C   0  0  0  0  0  0
  -29.1686  -23.9495  -22.9889 O   0  5  0  0  0  0
  -27.7881  -22.9616  -24.4110 O   0  0  0  0  0  0
  -30.1661  -21.1859  -22.2486 C   0  0  0  0  0  0
  -30.8785  -19.8301  -22.1404 C   0  0  0  0  0  0
  -30.1369  -18.4152  -22.9944 S   0  0  0  0  0  0
  -30.4678  -22.1056  -21.0646 C   0  0  0  0  0  0
  -31.8490  -22.6447  -21.1510 N   0  3  0  0  0  0
  -32.9035  -21.8580  -20.8133 C   0  0  0  0  0  0
  -34.2226  -22.3486  -20.8435 C   0  0  0  0  0  0
  -34.4509  -23.6875  -21.2318 C   0  0  0  0  0  0
  -33.3433  -24.4757  -21.6114 C   0  0  0  0  0  0
  -32.0453  -23.9282  -21.5467 C   0  0  0  0  0  0
  -35.8330  -24.2687  -21.2568 C   0  0  0  0  0  0
  -36.6624  -23.8434  -20.3039 N   0  0  0  0  0  0
  -36.1502  -25.1288  -22.0737 O   0  0  0  0  0  0
  -30.1377  -18.2215  -26.0322 N   0  0  0  0  0  0
  -30.5687  -18.0083  -27.2836 C   0  0  0  0  0  0
  -31.9564  -17.3285  -27.4392 C   0  0  2  0  0  0
  -32.8767  -17.4952  -26.2184 C   0  0  0  0  0  0
  -33.4471  -16.3489  -25.6233 C   0  0  0  0  0  0
  -34.2751  -16.4622  -24.4892 C   0  0  0  0  0  0
  -34.5423  -17.7284  -23.9361 C   0  0  0  0  0  0
  -33.9933  -18.8812  -24.5283 C   0  0  0  0  0  0
  -33.1708  -18.7668  -25.6662 C   0  0  0  0  0  0
  -32.6831  -17.9050  -28.6773 C   0  0  0  0  0  0
  -32.7690  -19.1496  -28.8080 O   0  5  0  0  0  0
  -33.1692  -17.0770  -29.4776 O   0  0  0  0  0  0
  -29.8995  -18.3495  -28.2630 O   0  0  0  0  0  0
  -28.0171  -18.5943  -26.0175 H   0  0  0  0  0  0
  -27.9213  -19.1473  -23.6970 H   0  0  0  0  0  0
  -31.8945  -19.9375  -22.5181 H   0  0  0  0  0  0
  -30.9528  -19.5293  -21.0961 H   0  0  0  0  0  0
  -29.7735  -22.9323  -20.9463 H   0  0  0  0  0  0
  -30.3683  -21.5495  -20.1383 H   0  0  0  0  0  0
  -32.6758  -20.8608  -20.4675 H   0  0  0  0  0  0
  -35.0336  -21.6960  -20.5506 H   0  0  0  0  0  0
  -33.4842  -25.5040  -21.9131 H   0  0  0  0  0  0
  -31.1684  -24.5078  -21.7806 H   0  0  0  0  0  0
  -36.3417  -23.1805  -19.6142 H   0  0  0  0  0  0
  -37.5988  -24.2163  -20.2628 H   0  0  0  0  0  0
  -30.7168  -17.8768  -25.2778 H   0  0  0  0  0  0
  -31.7697  -16.2669  -27.6087 H   0  0  0  0  0  0
  -33.2418  -15.3709  -26.0337 H   0  0  0  0  0  0
  -34.6915  -15.5755  -24.0342 H   0  0  0  0  0  0
  -35.1670  -17.8119  -23.0593 H   0  0  0  0  0  0
  -34.2014  -19.8534  -24.1076 H   0  0  0  0  0  0
  -32.7553  -19.6601  -26.1091 H   0  0  0  0  0  0
  1  2  2  0  0  0
  2  5  1  0  0  0
  2  3  1  0  0  0
  3  4  1  0  0  0
  3 23  1  0  0  0
  3 36  1  0  0  0
  4 12  1  0  0  0
  4  5  1  0  0  0
  4 37  1  0  0  0
  5  6  1  0  0  0
  6  7  1  0  0  0
  6 10  2  0  0  0
  7  8  1  0  0  0
  7  9  2  0  0  0
 10 11  1  0  0  0
 10 13  1  0  0  0
 11 12  1  0  0  0
 11 38  1  0  0  0
 11 39  1  0  0  0
 13 14  1  0  0  0
 13 40  1  0  0  0
 13 41  1  0  0  0
 14 19  1  0  0  0
 14 15  2  0  0  0
 15 16  1  0  0  0
 15 42  1  0  0  0
 16 17  2  0  0  0
 16 43  1  0  0  0
 17 18  1  0  0  0
 17 20  1  0  0  0
 18 19  2  0  0  0
 18 44  1  0  0  0
 19 45  1  0  0  0
 20 21  1  0  0  0
 20 22  2  0  0  0
 21 46  1  0  0  0
 21 47  1  0  0  0
 23 24  1  0  0  0
 23 48  1  0  0  0
 24 25  1  0  0  0
 24 35  2  0  0  0
 25 26  1  0  0  0
 25 32  1  0  0  0
 25 49  1  0  0  0
 26 31  1  0  0  0
 26 27  2  0  0  0
 27 28  1  0  0  0
 27 50  1  0  0  0
 28 29  2  0  0  0
 28 51  1  0  0  0
 29 30  1  0  0  0
 29 52  1  0  0  0
 30 31  2  0  0  0
 30 53  1  0  0  0
 31 54  1  0  0  0
 32 33  1  0  0  0
 32 34  2  0  0  0
M  CHG  3   8  -1  14   1  33  -1
M  END
> <s_m_entry_id>
27476

> <s_m_entry_name>
data_maestro.28

> <s_m_Source_Path>
C:\Users\olshana1\Git\GramNeg-Accumulation\Gram Negative Permeation - OmpF

> <s_m_Source_File>
data_maestro.csv

> <i_m_Source_File_Index>
28

> <s_m_job_name>
glide-dock_Nicaido_neutral

> <s_i_glide_gridfile>
3POX-grid

> <i_i_glide_lignum>
35

> <i_i_glide_rotatable_bonds>
9

> <r_i_docking_score>
-4.89606713637051

> <r_i_glide_ligand_efficiency>
-0.139887632467729

> <r_i_glide_ligand_efficiency_sa>
-0.457581721234944

> <r_i_glide_ligand_efficiency_ln>
-1.07479539878885

> <r_i_glide_gscore>
-4.89606713637051

> <r_i_glide_lipo>
-0.00222122445768061

> <r_i_glide_hbond>
-0.684095303045392

> <r_i_glide_metal>
0

> <r_i_glide_rewards>
-0.0292715122342338

> <r_i_glide_evdw>
-31.701042175293

> <r_i_glide_ecoul>
-16.3905010223389

> <r_i_glide_erotb>
0.415177540389138

> <r_i_glide_esite>
-0.552029374906864

> <r_i_glide_emodel>
-79.368814886456

> <r_i_glide_energy>
-48.0915431976318

> <r_i_glide_einternal>
3.69948577880859

> <i_i_glide_confnum>
53

> <i_i_glide_posenum>
185

> <r_i_glide_eff_state_penalty>
0

> <r_glide_res:A132_vdw>
-1.04140390765818

> <r_glide_res:A132_coul>
-17.1845918550133

> <r_glide_res:A132_hbond>
0

> <r_glide_res:A132_dist>
3.18459586267123

> <r_glide_res:A132_Eint>
-18.2259957626715

> <r_glide_res:A117_vdw>
-4.79377808433898

> <r_glide_res:A117_coul>
23.1070887545009

> <r_glide_res:A117_hbond>
0

> <r_glide_res:A117_dist>
2.7326094932995

> <r_glide_res:A117_Eint>
18.313310670162

> <r_glide_res:A113_vdw>
-3.44750206230451

> <r_glide_res:A113_coul>
-13.3524726571569

> <r_glide_res:A113_hbond>
0

> <r_glide_res:A113_dist>
2.22264090688263

> <r_glide_res:A113_Eint>
-16.7999747194614

> <r_glide_res:A82_vdw>
-0.0272110925411017

> <r_glide_res:A82_coul>
-38.5681762445048

> <r_glide_res:A82_hbond>
-0.211762402860036

> <r_glide_res:A82_dist>
1.8345337927896

> <r_glide_res:A82_Eint>
-38.8071497399059

> <r_glide_res:A42_vdw>
-1.26548723523961

> <r_glide_res:A42_coul>
-46.9383369919534

> <r_glide_res:A42_hbond>
-0.198993174790267

> <r_glide_res:A42_dist>
1.97982212754551

> <r_glide_res:A42_Eint>
-48.4028174019833

> <r_glide_res:A16_vdw>
0.138982340251108

> <r_glide_res:A16_coul>
-68.6801243749949

> <r_glide_res:A16_hbond>
-0.273339725395089

> <r_glide_res:A16_dist>
1.91447140995463

> <r_glide_res:A16_Eint>
-68.8144817601389

> <s_m_source_file>
ligprep_Nicaido_neutral.maegz

> <i_m_source_file_index>
28

> <i_lp_mmshare_version>
58128

> <i_f3d_flags>
0

> <s_lp_Force_Field>
S-OPLS

> <r_lp_Energy>
64.89814

> <b_lp_Chiralities_Consistent>
1

> <s_lp_Variant>
SCE-796-1

> <s_epik_input>
W2NIXTFbY0hdW2NIXVtjSF1bY0hdYzFbQ0BIXShDKD1PKVtPSF0pQyg9TylbTkhdW0NAQEhdMkMoPU8pTihbQ0BASF0yMylDKEMoPU8pW09IXSk9QyhbQ0gyXVMzKVtDSDJdW24rXTRbY0hdW2NIXWMoW2NIXVtjSF00KUMoPU8pW05IMl0=

> <s_epik_cmdline>
J2VwaWtfcHl0aG9uJywgJy1waHQnLCAnMC4wJywgJy1waCcsICc3LjQnLCAnLW50JywgJy1tYScsICc1MDAnLCAnLWltYWUnLCAnPGluZmlsZS5tYWU+JywgJy1vbWFlJywgJzxvdXRmaWxlLm1hZT4n

> <r_lp_tautomer_probability>
1

> <r_epik_Ionization_Penalty>
  0.0010

> <r_epik_Ionization_Penalty_Charging>
  0.0001

> <r_epik_Ionization_Penalty_Neutral>
  0.0010

> <r_epik_State_Penalty>
  0.0000

> <r_epik_Charging_Adjusted_Penalty>
5.79311335039239e-05

> <i_epik_Tot_Q>
-1

> <i_epik_Tot_abs_Q>
3

> <s_epik_Chemistry_Notes>
This compound contains an acetal/aminal-like group ( X-CH(R)-Y where X, Y are N, S, or O) that may be acid/base labile, releasing an aldehyde.

> <s_m_subgroup_title>
glide-dock_Nicaido_neutral_pv1

> <s_m_subgroupid>
glide-dock_Nicaido_neutral_pv1

> <b_m_subgroup_collapsed>
0

$$$$
Cefamandole
                    3D
 Schrodinger Suite 2022-2.
 48 51  0  0  1  0            999 V2000
  -26.0077  -21.4483  -17.3698 C   0  0  0  0  0  0
  -26.6750  -22.5636  -18.0175 N   0  0  0  0  0  0
  -26.2984  -23.3512  -19.0273 C   0  0  0  0  0  0
  -24.8389  -23.1046  -19.9682 S   0  0  0  0  0  0
  -25.2528  -21.5088  -20.7743 C   0  0  0  0  0  0
  -26.7028  -21.2912  -21.2357 C   0  0  0  0  0  0
  -27.2540  -21.9853  -22.2622 C   0  0  0  0  0  0
  -28.5180  -21.7140  -22.8101 N   0  0  0  0  0  0
  -29.5314  -20.8860  -22.1797 C   0  0  2  0  0  0
  -30.2481  -20.8765  -23.5521 C   0  0  2  0  0  0
  -29.2884  -22.0416  -23.9108 C   0  0  0  0  0  0
  -29.1787  -22.8847  -24.7786 O   0  0  0  0  0  0
  -30.0049  -19.6262  -24.2835 N   0  0  0  0  0  0
  -30.0479  -19.4484  -25.6142 C   0  0  0  0  0  0
  -29.8746  -18.0074  -26.1230 C   0  0  2  0  0  0
  -31.1947  -17.5523  -26.7466 C   0  0  0  0  0  0
  -32.2571  -17.1496  -25.9056 C   0  0  0  0  0  0
  -33.4853  -16.7316  -26.4528 C   0  0  0  0  0  0
  -33.6687  -16.7273  -27.8481 C   0  0  0  0  0  0
  -32.6230  -17.1416  -28.6941 C   0  0  0  0  0  0
  -31.3889  -17.5488  -28.1473 C   0  0  0  0  0  0
  -28.7692  -17.9496  -27.0108 O   0  0  0  0  0  0
  -30.2395  -20.3701  -26.4133 O   0  0  0  0  0  0
  -28.7633  -19.3960  -21.4791 S   0  0  0  0  0  0
  -27.4533  -20.1791  -20.5002 C   0  0  0  0  0  0
  -26.5027  -23.1496  -22.9409 C   0  0  0  0  0  0
  -25.9144  -22.9023  -24.0134 O   0  5  0  0  0  0
  -26.6876  -24.2725  -22.4134 O   0  0  0  0  0  0
  -27.1682  -24.3369  -19.2164 N   0  0  0  0  0  0
  -28.1754  -24.0530  -18.3166 N   0  0  0  0  0  0
  -27.8931  -22.9941  -17.6135 N   0  0  0  0  0  0
  -25.1795  -21.0798  -17.9681 H   0  0  0  0  0  0
  -26.7103  -20.6291  -17.2144 H   0  0  0  0  0  0
  -25.5993  -21.7758  -16.4142 H   0  0  0  0  0  0
  -24.6033  -21.4069  -21.6441 H   0  0  0  0  0  0
  -24.9510  -20.6962  -20.1158 H   0  0  0  0  0  0
  -30.0706  -21.4449  -21.4108 H   0  0  0  0  0  0
  -31.3021  -21.1442  -23.4726 H   0  0  0  0  0  0
  -29.7827  -18.8248  -23.7071 H   0  0  0  0  0  0
  -29.6498  -17.3523  -25.2811 H   0  0  0  0  0  0
  -32.1246  -17.1422  -24.8327 H   0  0  0  0  0  0
  -34.2842  -16.4125  -25.7996 H   0  0  0  0  0  0
  -34.6098  -16.4067  -28.2693 H   0  0  0  0  0  0
  -32.7693  -17.1368  -29.7641 H   0  0  0  0  0  0
  -30.5898  -17.8488  -28.8085 H   0  0  0  0  0  0
  -28.2372  -17.1799  -26.8134 H   0  0  0  0  0  0
  -27.8975  -20.5869  -19.5928 H   0  0  0  0  0  0
  -26.7696  -19.3869  -20.1952 H   0  0  0  0  0  0
  1  2  1  0  0  0
  1 32  1  0  0  0
  1 33  1  0  0  0
  1 34  1  0  0  0
  2 31  1  0  0  0
  2  3  1  0  0  0
  3  4  1  0  0  0
  3 29  2  0  0  0
  4  5  1  0  0  0
  5  6  1  0  0  0
  5 35  1  0  0  0
  5 36  1  0  0  0
  6 25  1  0  0  0
  6  7  2  0  0  0
  7  8  1  0  0  0
  7 26  1  0  0  0
  8 11  1  0  0  0
  8  9  1  0  0  0
  9 10  1  0  0  0
  9 24  1  0  0  0
  9 37  1  0  0  0
 10 11  1  0  0  0
 10 13  1  0  0  0
 10 38  1  0  0  0
 11 12  2  0  0  0
 13 14  1  0  0  0
 13 39  1  0  0  0
 14 15  1  0  0  0
 14 23  2  0  0  0
 15 16  1  0  0  0
 15 22  1  0  0  0
 15 40  1  0  0  0
 16 21  1  0  0  0
 16 17  2  0  0  0
 17 18  1  0  0  0
 17 41  1  0  0  0
 18 19  2  0  0  0
 18 42  1  0  0  0
 19 20  1  0  0  0
 19 43  1  0  0  0
 20 21  2  0  0  0
 20 44  1  0  0  0
 21 45  1  0  0  0
 22 46  1  0  0  0
 24 25  1  0  0  0
 25 47  1  0  0  0
 25 48  1  0  0  0
 26 27  1  0  0  0
 26 28  2  0  0  0
 29 30  1  0  0  0
 30 31  2  0  0  0
M  CHG  1  27  -1
M  END
> <s_m_entry_id>
27477

> <s_m_entry_name>
data_maestro.9

> <s_m_Source_Path>
C:\Users\olshana1\Git\GramNeg-Accumulation\Gram Negative Permeation - OmpF

> <s_m_Source_File>
data_maestro.csv

> <i_m_Source_File_Index>
9

> <s_m_job_name>
glide-dock_Nicaido_neutral

> <s_i_glide_gridfile>
3POX-grid

> <i_i_glide_lignum>
12

> <i_i_glide_rotatable_bonds>
9

> <r_i_docking_score>
-4.89514812169991

> <r_i_glide_ligand_efficiency>
-0.157908003925804

> <r_i_glide_ligand_efficiency_sa>
-0.496049147822455

> <r_i_glide_ligand_efficiency_ln>
-1.10400591971675

> <r_i_glide_gscore>
-4.89514812169991

> <r_i_glide_lipo>
-0.01549418741175

> <r_i_glide_hbond>
-0.573524880133794

> <r_i_glide_metal>
0

> <r_i_glide_rewards>
-0.262416289538788

> <r_i_glide_evdw>
-31.3196926116943

> <r_i_glide_ecoul>
-15.2153024673462

> <r_i_glide_erotb>
0.567285116635731

> <r_i_glide_esite>
-0.762717880564665

> <r_i_glide_emodel>
-69.6989973517625

> <r_i_glide_energy>
-46.5349950790405

> <r_i_glide_einternal>
9.31812477111816

> <i_i_glide_confnum>
130

> <i_i_glide_posenum>
190

> <r_i_glide_eff_state_penalty>
0

> <r_glide_res:A132_vdw>
-1.12099238612038

> <r_glide_res:A132_coul>
-45.11750423062

> <r_glide_res:A132_hbond>
-0.0557630024116983

> <r_glide_res:A132_dist>
2.15056307122193

> <r_glide_res:A132_Eint>
-46.294259619152

> <r_glide_res:A117_vdw>
-3.48904547550013

> <r_glide_res:A117_coul>
17.1466461039654

> <r_glide_res:A117_hbond>
0

> <r_glide_res:A117_dist>
1.97562473482864

> <r_glide_res:A117_Eint>
13.6576006284652

> <r_glide_res:A113_vdw>
-3.28343809822752

> <r_glide_res:A113_coul>
19.8062644582194

> <r_glide_res:A113_hbond>
0

> <r_glide_res:A113_dist>
3.21159710139913

> <r_glide_res:A113_Eint>
16.5228263599919

> <r_glide_res:A82_vdw>
2.08746475978659

> <r_glide_res:A82_coul>
-51.3581226341537

> <r_glide_res:A82_hbond>
-0.2

> <r_glide_res:A82_dist>
1.65818693604226

> <r_glide_res:A82_Eint>
-49.4706578743671

> <r_glide_res:A42_vdw>
-1.34927263346035

> <r_glide_res:A42_coul>
-48.6115978176889

> <r_glide_res:A42_hbond>
-0.19588189529871

> <r_glide_res:A42_dist>
1.97052572176616

> <r_glide_res:A42_Eint>
-50.156752346448

> <r_glide_res:A16_vdw>
0.219692752591434

> <r_glide_res:A16_coul>
-38.1504156547114

> <r_glide_res:A16_hbond>
-0.121879982423386

> <r_glide_res:A16_dist>
1.88131488930072

> <r_glide_res:A16_Eint>
-38.0526028845433

> <s_m_source_file>
ligprep_Nicaido_neutral.maegz

> <i_m_source_file_index>
9

> <i_lp_mmshare_version>
58128

> <i_f3d_flags>
0

> <s_lp_Force_Field>
S-OPLS

> <r_lp_Energy>
50.610726

> <b_lp_Chiralities_Consistent>
1

> <s_lp_Variant>
Cefamandole-1

> <s_epik_input>
bjFubmMobjFbQ0gzXSlTW0NIMl1DKD1DMkMoPU8pW09IXSlbQ0gyXVNbQ0BIXShOMjMpW0NASF0oQzM9TylbTkhdQyg9TylbQ0BASF0oW09IXSljNFtjSF1bY0hdW2NIXVtjSF1bY0hdNA==

> <s_epik_cmdline>
J2VwaWtfcHl0aG9uJywgJy1waHQnLCAnMC4wJywgJy1waCcsICc3LjQnLCAnLW50JywgJy1tYScsICc1MDAnLCAnLWltYWUnLCAnPGluZmlsZS5tYWU+JywgJy1vbWFlJywgJzxvdXRmaWxlLm1hZT4n

> <r_lp_tautomer_probability>
1

> <r_epik_Ionization_Penalty>
  0.0002

> <r_epik_Ionization_Penalty_Charging>
  0.0000

> <r_epik_Ionization_Penalty_Neutral>
  0.0002

> <r_epik_State_Penalty>
  0.0000

> <r_epik_Charging_Adjusted_Penalty>
8.65070171415913e-06

> <i_epik_Tot_Q>
-1

> <i_epik_Tot_abs_Q>
1

> <s_epik_Chemistry_Notes>
This compound contains an acetal/aminal-like group ( X-CH(R)-Y where X, Y are N, S, or O) that may be acid/base labile, releasing an aldehyde.

> <s_m_subgroup_title>
glide-dock_Nicaido_neutral_pv1

> <s_m_subgroupid>
glide-dock_Nicaido_neutral_pv1

> <b_m_subgroup_collapsed>
0

$$$$
Imipenem
                    3D
 Schrodinger Suite 2022-2.
 37 38  0  0  1  0            999 V2000
  -22.1942  -19.0096  -25.2844 C   0  0  0  0  0  0
  -22.7734  -20.4066  -25.5415 C   0  0  2  0  0  0
  -23.2905  -21.0809  -24.2641 C   0  0  1  0  0  0
  -24.5290  -20.5152  -23.5374 C   0  0  2  0  0  0
  -24.7426  -20.5132  -22.0119 C   0  0  0  0  0  0
  -25.9211  -21.4415  -21.8467 C   0  0  0  0  0  0
  -26.8128  -21.5929  -20.3203 S   0  0  0  0  0  0
  -26.9183  -19.9009  -19.6813 C   0  0  0  0  0  0
  -27.7260  -18.9840  -20.6104 C   0  0  0  0  0  0
  -29.1689  -19.1494  -20.4136 N   0  3  0  0  0  0
  -30.1622  -18.6049  -21.1357 C   0  0  0  0  0  0
  -29.9690  -17.8290  -22.2122 N   0  0  0  0  0  0
  -26.1597  -22.1112  -22.9762 C   0  0  0  0  0  0
  -25.2541  -21.7105  -23.9536 N   0  0  0  0  0  0
  -24.1663  -22.3278  -24.5487 C   0  0  0  0  0  0
  -23.9945  -23.4525  -24.9724 O   0  0  0  0  0  0
  -27.2896  -23.1392  -23.2779 C   0  0  0  0  0  0
  -27.8128  -23.0719  -24.4134 O   0  5  0  0  0  0
  -27.5057  -24.0173  -22.4125 O   0  0  0  0  0  0
  -21.7453  -21.1981  -26.1030 O   0  0  0  0  0  0
  -22.9379  -18.3497  -24.8393 H   0  0  0  0  0  0
  -21.8642  -18.5376  -26.2101 H   0  0  0  0  0  0
  -21.3422  -19.0491  -24.6050 H   0  0  0  0  0  0
  -23.5766  -20.3240  -26.2771 H   0  0  0  0  0  0
  -22.4918  -21.2773  -23.5474 H   0  0  0  0  0  0
  -24.9570  -19.6456  -24.0403 H   0  0  0  0  0  0
  -23.8800  -20.9112  -21.4768 H   0  0  0  0  0  0
  -24.9498  -19.5100  -21.6410 H   0  0  0  0  0  0
  -27.3868  -19.9499  -18.6983 H   0  0  0  0  0  0
  -25.9166  -19.5036  -19.5216 H   0  0  0  0  0  0
  -27.4751  -17.9492  -20.3901 H   0  0  0  0  0  0
  -27.4688  -19.1532  -21.6576 H   0  0  0  0  0  0
  -31.1796  -18.7927  -20.8141 H   0  0  0  0  0  0
  -29.0217  -17.5496  -22.4546 H   0  0  0  0  0  0
  -30.7503  -17.3172  -22.6065 H   0  0  0  0  0  0
  -21.5130  -20.8377  -26.9474 H   0  0  0  0  0  0
  -29.4965  -19.5499  -19.5291 H   0  0  0  0  0  0
  1  2  1  0  0  0
  1 21  1  0  0  0
  1 22  1  0  0  0
  1 23  1  0  0  0
  2  3  1  0  0  0
  2 20  1  0  0  0
  2 24  1  0  0  0
  3 15  1  0  0  0
  3  4  1  0  0  0
  3 25  1  0  0  0
  4 14  1  0  0  0
  4  5  1  0  0  0
  4 26  1  0  0  0
  5  6  1  0  0  0
  5 27  1  0  0  0
  5 28  1  0  0  0
  6  7  1  0  0  0
  6 13  2  0  0  0
  7  8  1  0  0  0
  8  9  1  0  0  0
  8 29  1  0  0  0
  8 30  1  0  0  0
  9 10  1  0  0  0
  9 31  1  0  0  0
  9 32  1  0  0  0
 10 11  2  3  0  0
 10 37  1  0  0  0
 11 12  1  0  0  0
 11 33  1  0  0  0
 12 34  1  0  0  0
 12 35  1  0  0  0
 13 14  1  0  0  0
 13 17  1  0  0  0
 14 15  1  0  0  0
 15 16  2  0  0  0
 17 18  1  0  0  0
 17 19  2  0  0  0
 20 36  1  0  0  0
M  CHG  2  10   1  18  -1
M  END
> <s_m_entry_id>
27478

> <s_m_entry_name>
data_maestro.12

> <s_m_Source_Path>
C:\Users\olshana1\Git\GramNeg-Accumulation\Gram Negative Permeation - OmpF

> <s_m_Source_File>
data_maestro.csv

> <i_m_Source_File_Index>
12

> <s_m_job_name>
glide-dock_Nicaido_neutral

> <s_i_glide_gridfile>
3POX-grid

> <i_i_glide_lignum>
17

> <i_i_glide_rotatable_bonds>
7

> <r_i_docking_score>
-4.89033920847527

> <r_i_glide_ligand_efficiency>
-0.244516960423764

> <r_i_glide_ligand_efficiency_sa>
-0.663721144267726

> <r_i_glide_ligand_efficiency_ln>
-1.22389060969933

> <r_i_glide_gscore>
-4.89033920847527

> <r_i_glide_lipo>
0

> <r_i_glide_hbond>
-0.540671205229014

> <r_i_glide_metal>
0

> <r_i_glide_rewards>
-1.36808809090909

> <r_i_glide_evdw>
-13.8165426254272

> <r_i_glide_ecoul>
-19.013952255249

> <r_i_glide_erotb>
1.02473259195513

> <r_i_glide_esite>
-0.463392534733577

> <r_i_glide_emodel>
-58.9899672195791

> <r_i_glide_energy>
-32.8304948806763

> <r_i_glide_einternal>
4.30659866333008

> <i_i_glide_confnum>
278

> <i_i_glide_posenum>
63

> <r_i_glide_eff_state_penalty>
0

> <r_glide_res:A132_vdw>
-1.32781546737442

> <r_glide_res:A132_coul>
-21.3602843241966

> <r_glide_res:A132_hbond>
0

> <r_glide_res:A132_dist>
2.6488211956828

> <r_glide_res:A132_Eint>
-22.688099791571

> <r_glide_res:A117_vdw>
-1.97165999918784

> <r_glide_res:A117_coul>
-12.5462491192999

> <r_glide_res:A117_hbond>
0

> <r_glide_res:A117_dist>
1.93338117124589

> <r_glide_res:A117_Eint>
-14.5179091184878

> <r_glide_res:A113_vdw>
3.22150269038963

> <r_glide_res:A113_coul>
-24.2807806420632

> <r_glide_res:A113_hbond>
-0.169493598651515

> <r_glide_res:A113_dist>
1.67395648212519

> <r_glide_res:A113_Eint>
-21.2287715503251

> <r_glide_res:A82_vdw>
1.13078721167913

> <r_glide_res:A82_coul>
-33.1215570447762

> <r_glide_res:A82_hbond>
-0.218330783101486

> <r_glide_res:A82_dist>
1.77987676105488

> <r_glide_res:A82_Eint>
-32.2091006161985

> <r_glide_res:A42_vdw>
-0.781131823380689

> <r_glide_res:A42_coul>
-29.2950365728487

> <r_glide_res:A42_hbond>
-0.152846823476013

> <r_glide_res:A42_dist>
1.99006089071454

> <r_glide_res:A42_Eint>
-30.2290152197054

> <r_glide_res:A16_vdw>
-0.164871141242362

> <r_glide_res:A16_coul>
-5.66232302603169

> <r_glide_res:A16_hbond>
0

> <r_glide_res:A16_dist>
4.85160297112394

> <r_glide_res:A16_Eint>
-5.82719416727405

> <s_m_source_file>
ligprep_Nicaido_neutral.maegz

> <i_m_source_file_index>
12

> <i_lp_mmshare_version>
58128

> <i_f3d_flags>
0

> <s_lp_Force_Field>
S-OPLS

> <r_lp_Energy>
22.988374

> <b_lp_Chiralities_Consistent>
1

> <s_lp_Variant>
Imipenem-2

> <s_epik_input>
W0NIM11bQ0BASF0oW09IXSlbQ0BASF0xQyg9TylOKFtDQEhdMTIpQyhDKD1PKVtPSF0pPUMoW0NIMl0yKVNbQ0gyXVtDSDJdL049W0NIXS9bTkgyXQ==

> <s_epik_cmdline>
J2VwaWtfcHl0aG9uJywgJy1waHQnLCAnMC4wJywgJy1waCcsICc3LjQnLCAnLW50JywgJy1tYScsICc1MDAnLCAnLWltYWUnLCAnPGluZmlsZS5tYWU+JywgJy1vbWFlJywgJzxvdXRmaWxlLm1hZT4n

> <r_lp_tautomer_probability>
1

> <r_epik_Ionization_Penalty>
  0.0001

> <r_epik_Ionization_Penalty_Charging>
  0.0001

> <r_epik_Ionization_Penalty_Neutral>
  0.0000

> <r_epik_State_Penalty>
  0.0000

> <r_epik_Charging_Adjusted_Penalty>
9.5675940864495e-05

> <i_epik_Tot_Q>
0

> <i_epik_Tot_abs_Q>
2

> <s_epik_Chemistry_Notes>
This compound has an imine and may undergo hydrolysis.

> <s_m_subgroup_title>
glide-dock_Nicaido_neutral_pv1

> <s_m_subgroupid>
glide-dock_Nicaido_neutral_pv1

> <b_m_subgroup_collapsed>
0

$$$$
Ceftizoxime
                    3D
 Schrodinger Suite 2022-2.
 37 39  0  0  1  0            999 V2000
  -31.5722  -24.6081  -22.8286 C   0  0  0  0  0  0
  -30.3003  -23.9836  -22.7954 O   0  0  0  0  0  0
  -30.5343  -22.6076  -22.9001 N   0  0  0  0  0  0
  -29.5431  -21.8593  -22.6138 C   0  0  0  0  0  0
  -29.7515  -20.3996  -22.7256 C   0  0  0  0  0  0
  -29.9693  -19.5954  -21.6318 C   0  0  0  0  0  0
  -30.3686  -17.9647  -22.0939 S   0  0  0  0  0  0
  -30.1870  -18.4380  -23.7751 C   0  0  0  0  0  0
  -30.3902  -17.5533  -24.8167 N   0  0  0  0  0  0
  -29.8598  -19.7180  -23.9442 N   0  0  0  0  0  0
  -28.1289  -22.3108  -22.2567 C   0  0  0  0  0  0
  -27.5094  -21.5123  -21.3596 N   0  0  0  0  0  0
  -26.1123  -21.5530  -20.8938 C   0  0  1  0  0  0
  -26.0005  -21.3539  -19.3652 C   0  0  1  0  0  0
  -25.2135  -22.5769  -19.3225 N   0  0  0  0  0  0
  -25.4900  -22.9470  -20.6248 C   0  0  0  0  0  0
  -25.2637  -23.9498  -21.2639 O   0  0  0  0  0  0
  -24.5941  -23.0486  -18.1440 C   0  0  0  0  0  0
  -24.2078  -24.5730  -18.0312 C   0  0  0  0  0  0
  -23.2351  -24.8630  -17.2945 O   0  5  0  0  0  0
  -24.9307  -25.3896  -18.6452 O   0  0  0  0  0  0
  -24.3713  -22.2276  -17.0945 C   0  0  0  0  0  0
  -24.6907  -20.7435  -17.0374 C   0  0  0  0  0  0
  -25.0020  -20.0039  -18.6631 S   0  0  0  0  0  0
  -27.6209  -23.3058  -22.7844 O   0  0  0  0  0  0
  -31.4616  -25.6878  -22.8130 H   0  0  0  0  0  0
  -32.1720  -24.3218  -21.9621 H   0  0  0  0  0  0
  -32.1232  -24.3512  -23.7350 H   0  0  0  0  0  0
  -29.9698  -19.8603  -20.5845 H   0  0  0  0  0  0
  -29.9689  -17.7660  -25.7077 H   0  0  0  0  0  0
  -30.4337  -16.5654  -24.6060 H   0  0  0  0  0  0
  -28.0505  -20.7390  -20.9971 H   0  0  0  0  0  0
  -25.4612  -20.8721  -21.4438 H   0  0  0  0  0  0
  -26.9432  -21.4769  -18.8253 H   0  0  0  0  0  0
  -23.9393  -22.6331  -16.1905 H   0  0  0  0  0  0
  -25.5688  -20.6017  -16.4139 H   0  0  0  0  0  0
  -23.8646  -20.2127  -16.5645 H   0  0  0  0  0  0
  1  2  1  0  0  0
  1 26  1  0  0  0
  1 27  1  0  0  0
  1 28  1  0  0  0
  2  3  1  0  0  0
  3  4  2  3  0  0
  4  5  1  0  0  0
  4 11  1  0  0  0
  5 10  1  0  0  0
  5  6  2  0  0  0
  6  7  1  0  0  0
  6 29  1  0  0  0
  7  8  1  0  0  0
  8  9  1  0  0  0
  8 10  2  0  0  0
  9 30  1  0  0  0
  9 31  1  0  0  0
 11 12  1  0  0  0
 11 25  2  0  0  0
 12 13  1  0  0  0
 12 32  1  0  0  0
 13 16  1  0  0  0
 13 14  1  0  0  0
 13 33  1  0  0  0
 14 24  1  0  0  0
 14 15  1  0  0  0
 14 34  1  0  0  0
 15 16  1  0  0  0
 15 18  1  0  0  0
 16 17  2  0  0  0
 18 19  1  0  0  0
 18 22  2  0  0  0
 19 20  1  0  0  0
 19 21  2  0  0  0
 22 23  1  0  0  0
 22 35  1  0  0  0
 23 24  1  0  0  0
 23 36  1  0  0  0
 23 37  1  0  0  0
M  CHG  1  20  -1
M  END
> <s_m_entry_id>
27479

> <s_m_entry_name>
data_maestro.5

> <s_m_Source_Path>
C:\Users\olshana1\Git\GramNeg-Accumulation\Gram Negative Permeation - OmpF

> <s_m_Source_File>
data_maestro.csv

> <i_m_Source_File_Index>
5

> <s_m_job_name>
glide-dock_Nicaido_neutral

> <s_i_glide_gridfile>
3POX-grid

> <i_i_glide_lignum>
6

> <i_i_glide_rotatable_bonds>
6

> <r_i_docking_score>
-4.88969416510216

> <r_i_glide_ligand_efficiency>
-0.195587766604087

> <r_i_glide_ligand_efficiency_sa>
-0.57190209831416

> <r_i_glide_ligand_efficiency_ln>
-1.15900404943891

> <r_i_glide_gscore>
-4.88969416510216

> <r_i_glide_lipo>
0

> <r_i_glide_hbond>
-0.759056395944217

> <r_i_glide_metal>
0

> <r_i_glide_rewards>
-0.791847162469383

> <r_i_glide_evdw>
-24.9344291687012

> <r_i_glide_ecoul>
-14.387279510498

> <r_i_glide_erotb>
0.664075194683877

> <r_i_glide_esite>
-0.598052416362676

> <r_i_glide_emodel>
-59.0119507858968

> <r_i_glide_energy>
-39.3217086791992

> <r_i_glide_einternal>
7.68991994857788

> <i_i_glide_confnum>
13

> <i_i_glide_posenum>
217

> <r_i_glide_eff_state_penalty>
0

> <r_glide_res:A132_vdw>
-1.57061947762658

> <r_glide_res:A132_coul>
-44.4251497733936

> <r_glide_res:A132_hbond>
-0.16

> <r_glide_res:A132_dist>
1.9350563907012

> <r_glide_res:A132_Eint>
-46.1557692510202

> <r_glide_res:A117_vdw>
-3.18424211240059

> <r_glide_res:A117_coul>
12.7518414661091

> <r_glide_res:A117_hbond>
0

> <r_glide_res:A117_dist>
2.18821130284021

> <r_glide_res:A117_Eint>
9.5675993537085

> <r_glide_res:A113_vdw>
1.03614398521547

> <r_glide_res:A113_coul>
10.0377032141054

> <r_glide_res:A113_hbond>
0

> <r_glide_res:A113_dist>
2.13465343468898

> <r_glide_res:A113_Eint>
11.0738471993209

> <r_glide_res:A82_vdw>
-1.70284459742467

> <r_glide_res:A82_coul>
-35.2090544372248

> <r_glide_res:A82_hbond>
-0.128071955922276

> <r_glide_res:A82_dist>
2.01644315361344

> <r_glide_res:A82_Eint>
-37.0399709905718

> <r_glide_res:A42_vdw>
-0.878410303051549

> <r_glide_res:A42_coul>
-23.1691536624832

> <r_glide_res:A42_hbond>
0

> <r_glide_res:A42_dist>
3.46820143840639

> <r_glide_res:A42_Eint>
-24.0475639655348

> <r_glide_res:A16_vdw>
-0.289124039118588

> <r_glide_res:A16_coul>
-15.4682923952922

> <r_glide_res:A16_hbond>
0

> <r_glide_res:A16_dist>
4.17690147950123

> <r_glide_res:A16_Eint>
-15.7574164344107

> <s_m_source_file>
ligprep_Nicaido_neutral.maegz

> <i_m_source_file_index>
5

> <i_lp_mmshare_version>
58128

> <i_f3d_flags>
0

> <s_lp_Force_Field>
S-OPLS

> <r_lp_Energy>
52.500132

> <b_lp_Chiralities_Consistent>
1

> <s_lp_Variant>
Ceftizoxime-2

> <s_epik_input>
W05IMl1jKG4xKXNbY0hdYzEvQyg9TlxPW0NIM10pQyg9TylbTkhdW0NAQEhdMkMoPU8pTihbQ0BIXTIzKUMoQyg9TylbT0hdKT1bQ0hdW0NIMl1TMw==

> <s_epik_cmdline>
J2VwaWtfcHl0aG9uJywgJy1waHQnLCAnMC4wJywgJy1waCcsICc3LjQnLCAnLW50JywgJy1tYScsICc1MDAnLCAnLWltYWUnLCAnPGluZmlsZS5tYWU+JywgJy1vbWFlJywgJzxvdXRmaWxlLm1hZT4n

> <r_lp_tautomer_probability>
1

> <r_epik_Ionization_Penalty>
  0.0005

> <r_epik_Ionization_Penalty_Charging>
  0.0000

> <r_epik_Ionization_Penalty_Neutral>
  0.0005

> <r_epik_State_Penalty>
  0.0000

> <r_epik_Charging_Adjusted_Penalty>
4.86746471452517e-05

> <i_epik_Tot_Q>
-1

> <i_epik_Tot_abs_Q>
1

> <s_epik_Chemistry_Notes>
This compound has an imine and may undergo hydrolysis. This compound contains an acetal/aminal-like group ( X-CH(R)-Y where X, Y are N, S, or O) that may be acid/base labile, releasing an aldehyde.

> <s_m_subgroup_title>
glide-dock_Nicaido_neutral_pv1

> <s_m_subgroupid>
glide-dock_Nicaido_neutral_pv1

> <b_m_subgroup_collapsed>
0

$$$$
Cefazolin
                    3D
 Schrodinger Suite 2022-2.
 42 45  0  0  1  0            999 V2000
  -21.3818  -20.6157  -27.4668 C   0  0  0  0  0  0
  -21.7485  -21.5482  -26.3659 C   0  0  0  0  0  0
  -20.8373  -22.1770  -25.6129 N   0  0  0  0  0  0
  -21.4196  -22.9943  -24.6561 N   0  0  0  0  0  0
  -22.7538  -22.9385  -24.6967 C   0  0  0  0  0  0
  -23.4189  -21.9267  -25.9699 S   0  0  0  0  0  0
  -23.8032  -23.8119  -23.5925 S   0  0  0  0  0  0
  -23.1179  -23.1732  -22.0282 C   0  0  0  0  0  0
  -24.1972  -23.0384  -20.9629 C   0  0  0  0  0  0
  -24.3910  -23.8997  -19.9332 C   0  0  0  0  0  0
  -25.4877  -23.7105  -19.0851 N   0  0  0  0  0  0
  -25.8896  -22.4212  -18.5397 C   0  0  2  0  0  0
  -27.1983  -23.1187  -18.0924 C   0  0  2  0  0  0
  -26.4432  -24.4438  -18.4134 C   0  0  0  0  0  0
  -26.5857  -25.6378  -18.2565 O   0  0  0  0  0  0
  -28.3689  -22.7736  -18.9282 N   0  0  0  0  0  0
  -28.6543  -23.1270  -20.1958 C   0  0  0  0  0  0
  -29.8435  -22.4258  -20.8616 C   0  0  0  0  0  0
  -29.6813  -22.4142  -22.3095 N   0  0  0  0  0  0
  -28.9806  -21.6024  -23.1069 C   0  0  0  0  0  0
  -29.0017  -22.0170  -24.3688 N   0  0  0  0  0  0
  -29.7947  -23.1494  -24.3151 N   0  0  0  0  0  0
  -30.1921  -23.3978  -23.0972 N   0  0  0  0  0  0
  -27.9987  -23.9495  -20.8398 O   0  0  0  0  0  0
  -25.8003  -21.0674  -19.7831 S   0  0  0  0  0  0
  -25.2033  -21.9314  -21.2589 C   0  0  0  0  0  0
  -23.4930  -25.1496  -19.6177 C   0  0  0  0  0  0
  -23.2271  -25.3557  -18.4117 O   0  5  0  0  0  0
  -23.1681  -25.8626  -20.5953 O   0  0  0  0  0  0
  -20.3253  -20.3497  -27.4117 H   0  0  0  0  0  0
  -21.5750  -21.0890  -28.4275 H   0  0  0  0  0  0
  -21.9741  -19.7024  -27.4006 H   0  0  0  0  0  0
  -22.6892  -22.1835  -22.1937 H   0  0  0  0  0  0
  -22.2862  -23.7992  -21.7111 H   0  0  0  0  0  0
  -25.2567  -22.1714  -17.6844 H   0  0  0  0  0  0
  -27.3838  -22.9601  -17.0301 H   0  0  0  0  0  0
  -29.0312  -22.1348  -18.4986 H   0  0  0  0  0  0
  -29.9242  -21.3969  -20.5059 H   0  0  0  0  0  0
  -30.7694  -22.9371  -20.5981 H   0  0  0  0  0  0
  -28.4318  -20.7378  -22.7594 H   0  0  0  0  0  0
  -24.7668  -21.1819  -21.9197 H   0  0  0  0  0  0
  -26.0488  -22.3636  -21.7929 H   0  0  0  0  0  0
  1  2  1  0  0  0
  1 30  1  0  0  0
  1 31  1  0  0  0
  1 32  1  0  0  0
  2  6  1  0  0  0
  2  3  2  0  0  0
  3  4  1  0  0  0
  4  5  2  0  0  0
  5  6  1  0  0  0
  5  7  1  0  0  0
  7  8  1  0  0  0
  8  9  1  0  0  0
  8 33  1  0  0  0
  8 34  1  0  0  0
  9 26  1  0  0  0
  9 10  2  0  0  0
 10 11  1  0  0  0
 10 27  1  0  0  0
 11 14  1  0  0  0
 11 12  1  0  0  0
 12 13  1  0  0  0
 12 25  1  0  0  0
 12 35  1  0  0  0
 13 14  1  0  0  0
 13 16  1  0  0  0
 13 36  1  0  0  0
 14 15  2  0  0  0
 16 17  1  0  0  0
 16 37  1  0  0  0
 17 18  1  0  0  0
 17 24  2  0  0  0
 18 19  1  0  0  0
 18 38  1  0  0  0
 18 39  1  0  0  0
 19 23  1  0  0  0
 19 20  1  0  0  0
 20 21  2  0  0  0
 20 40  1  0  0  0
 21 22  1  0  0  0
 22 23  2  0  0  0
 25 26  1  0  0  0
 26 41  1  0  0  0
 26 42  1  0  0  0
 27 28  1  0  0  0
 27 29  2  0  0  0
M  CHG  1  28  -1
M  END
> <s_m_entry_id>
27480

> <s_m_entry_name>
data_maestro.2

> <s_m_Source_Path>
C:\Users\olshana1\Git\GramNeg-Accumulation\Gram Negative Permeation - OmpF

> <s_m_Source_File>
data_maestro.csv

> <i_m_Source_File_Index>
2

> <s_m_job_name>
glide-dock_Nicaido_neutral

> <s_i_glide_gridfile>
3POX-grid

> <i_i_glide_lignum>
2

> <i_i_glide_rotatable_bonds>
8

> <r_i_docking_score>
-4.88008956650643

> <r_i_glide_ligand_efficiency>
-0.168278950569187

> <r_i_glide_ligand_efficiency_sa>
-0.517006250662167

> <r_i_glide_ligand_efficiency_ln>
-1.11741676233587

> <r_i_glide_gscore>
-4.88008956650643

> <r_i_glide_lipo>
-0.390887771394281

> <r_i_glide_hbond>
-0.315067258034246

> <r_i_glide_metal>
0

> <r_i_glide_rewards>
-0.315354886572974

> <r_i_glide_evdw>
-30.2942752838135

> <r_i_glide_ecoul>
-13.4067687988281

> <r_i_glide_erotb>
0.585623573400065

> <r_i_glide_esite>
-0.918674139890101

> <r_i_glide_emodel>
-66.4183209139625

> <r_i_glide_energy>
-43.7010440826416

> <r_i_glide_einternal>
8.90892887115479

> <i_i_glide_confnum>
180

> <i_i_glide_posenum>
214

> <r_i_glide_eff_state_penalty>
0

> <r_glide_res:A132_vdw>
-1.8514471776612

> <r_glide_res:A132_coul>
-48.2253415004873

> <r_glide_res:A132_hbond>
-0.160894876554659

> <r_glide_res:A132_dist>
1.79677186197352

> <r_glide_res:A132_Eint>
-50.2376835547031

> <r_glide_res:A117_vdw>
-0.896816178872972

> <r_glide_res:A117_coul>
12.9580868538257

> <r_glide_res:A117_hbond>
0

> <r_glide_res:A117_dist>
4.15971478596316

> <r_glide_res:A117_Eint>
12.0612706749527

> <r_glide_res:A113_vdw>
-2.69435171584857

> <r_glide_res:A113_coul>
2.23380971820468

> <r_glide_res:A113_hbond>
-0.0774902063375116

> <r_glide_res:A113_dist>
2.24734065476637

> <r_glide_res:A113_Eint>
-0.538032203981394

> <r_glide_res:A82_vdw>
-2.56443363276232

> <r_glide_res:A82_coul>
-33.7882753585455

> <r_glide_res:A82_hbond>
0

> <r_glide_res:A82_dist>
2.4217780843883

> <r_glide_res:A82_Eint>
-36.3527089913078

> <r_glide_res:A42_vdw>
-2.18928636918114

> <r_glide_res:A42_coul>
-25.9733706827343

> <r_glide_res:A42_hbond>
0

> <r_glide_res:A42_dist>
2.43655090274437

> <r_glide_res:A42_Eint>
-28.1626570519154

> <r_glide_res:A16_vdw>
-0.310780439219337

> <r_glide_res:A16_coul>
-16.4181982545582

> <r_glide_res:A16_hbond>
0

> <r_glide_res:A16_dist>
4.05802383687709

> <r_glide_res:A16_Eint>
-16.7289786937776

> <s_m_source_file>
ligprep_Nicaido_neutral.maegz

> <i_m_source_file_index>
2

> <i_lp_mmshare_version>
58128

> <i_f3d_flags>
0

> <s_lp_Force_Field>
S-OPLS

> <r_lp_Energy>
37.420105

> <b_lp_Chiralities_Consistent>
1

> <s_lp_Variant>
Cefazolin-1

> <s_epik_input>
W0NIM11jMW5uYyhzMSlTW0NIMl1DKD1DMkMoPU8pW09IXSlbQ0gyXVNbQ0BIXShOMjMpW0NASF0oQzM9TylbTkhdQyg9TylbQ0gyXW40W2NIXW5ubjQ=

> <s_epik_cmdline>
J2VwaWtfcHl0aG9uJywgJy1waHQnLCAnMC4wJywgJy1waCcsICc3LjQnLCAnLW50JywgJy1tYScsICc1MDAnLCAnLWltYWUnLCAnPGluZmlsZS5tYWU+JywgJy1vbWFlJywgJzxvdXRmaWxlLm1hZT4n

> <r_lp_tautomer_probability>
1

> <r_epik_Ionization_Penalty>
  0.0000

> <r_epik_Ionization_Penalty_Charging>
  0.0000

> <r_epik_Ionization_Penalty_Neutral>
  0.0000

> <r_epik_State_Penalty>
  0.0000

> <r_epik_Charging_Adjusted_Penalty>
8.33047029083912e-06

> <i_epik_Tot_Q>
-1

> <i_epik_Tot_abs_Q>
1

> <s_epik_Chemistry_Notes>
This compound contains an acetal/aminal-like group ( X-CH(R)-Y where X, Y are N, S, or O) that may be acid/base labile, releasing an aldehyde.

> <s_m_subgroup_title>
glide-dock_Nicaido_neutral_pv1

> <s_m_subgroupid>
glide-dock_Nicaido_neutral_pv1

> <b_m_subgroup_collapsed>
0

$$$$
Aztreonam
                    3D
 Schrodinger Suite 2022-2.
 43 44  0  0  1  0            999 V2000
  -22.3849  -21.9439  -18.5443 C   0  0  0  0  0  0
  -23.1516  -22.6958  -17.4451 C   0  0  1  0  0  0
  -24.6166  -23.1622  -17.6472 C   0  0  2  0  0  0
  -23.9932  -24.5266  -18.0134 C   0  0  0  0  0  0
  -22.8219  -24.1132  -17.4266 N   0  0  0  0  0  0
  -21.2985  -24.7220  -17.1645 S   0  0  0  0  0  0
  -20.7443  -24.9635  -18.5057 O   0  0  0  0  0  0
  -21.5684  -25.9496  -16.4070 O   0  5  0  0  0  0
  -20.5872  -23.7002  -16.3847 O   0  0  0  0  0  0
  -24.3163  -25.5491  -18.5791 O   0  0  0  0  0  0
  -25.2481  -22.4565  -18.7565 N   0  0  0  0  0  0
  -26.2493  -22.8899  -19.5429 C   0  0  0  0  0  0
  -26.7001  -21.8933  -20.6024 C   0  0  0  0  0  0
  -25.9693  -20.5908  -20.6689 C   0  0  0  0  0  0
  -25.9148  -19.7402  -19.5881 C   0  0  0  0  0  0
  -24.9304  -18.3434  -19.8944 S   0  0  0  0  0  0
  -24.6952  -18.9207  -21.5324 C   0  0  0  0  0  0
  -23.9711  -18.1911  -22.4547 N   0  0  0  0  0  0
  -25.2626  -20.1019  -21.7773 N   0  0  0  0  0  0
  -27.6315  -22.2335  -21.3944 N   0  0  0  0  0  0
  -27.9455  -21.2527  -22.3544 O   0  0  0  0  0  0
  -29.1840  -21.5506  -23.0162 C   0  0  0  0  0  0
  -29.0806  -22.8499  -23.8673 C   0  0  0  0  0  0
  -28.9881  -22.7496  -25.1180 O   0  5  0  0  0  0
  -29.0803  -23.9494  -23.2539 O   0  0  0  0  0  0
  -30.3469  -21.6622  -21.9983 C   0  0  0  0  0  0
  -29.4180  -20.3256  -23.9235 C   0  0  0  0  0  0
  -26.7559  -24.0120  -19.4555 O   0  0  0  0  0  0
  -22.7141  -20.9072  -18.6118 H   0  0  0  0  0  0
  -21.3139  -21.9262  -18.3429 H   0  0  0  0  0  0
  -22.5237  -22.3960  -19.5270 H   0  0  0  0  0  0
  -23.0031  -22.2634  -16.4541 H   0  0  0  0  0  0
  -25.2005  -23.1521  -16.7249 H   0  0  0  0  0  0
  -24.9064  -21.5209  -18.9271 H   0  0  0  0  0  0
  -26.3697  -19.8671  -18.6166 H   0  0  0  0  0  0
  -24.1975  -18.3353  -23.4310 H   0  0  0  0  0  0
  -23.7859  -17.2233  -22.2372 H   0  0  0  0  0  0
  -31.3077  -21.7558  -22.5051 H   0  0  0  0  0  0
  -30.2485  -22.5239  -21.3370 H   0  0  0  0  0  0
  -30.3952  -20.7772  -21.3622 H   0  0  0  0  0  0
  -30.3387  -20.4210  -24.4991 H   0  0  0  0  0  0
  -29.4945  -19.4128  -23.3313 H   0  0  0  0  0  0
  -28.5954  -20.1826  -24.6248 H   0  0  0  0  0  0
  1  2  1  0  0  0
  1 29  1  0  0  0
  1 30  1  0  0  0
  1 31  1  0  0  0
  2  5  1  0  0  0
  2  3  1  0  0  0
  2 32  1  0  0  0
  3  4  1  0  0  0
  3 11  1  0  0  0
  3 33  1  0  0  0
  4  5  1  0  0  0
  4 10  2  0  0  0
  5  6  1  0  0  0
  6  7  2  0  0  0
  6  8  1  0  0  0
  6  9  2  0  0  0
 11 12  1  0  0  0
 11 34  1  0  0  0
 12 13  1  0  0  0
 12 28  2  0  0  0
 13 14  1  0  0  0
 13 20  2  3  0  0
 14 19  1  0  0  0
 14 15  2  0  0  0
 15 16  1  0  0  0
 15 35  1  0  0  0
 16 17  1  0  0  0
 17 18  1  0  0  0
 17 19  2  0  0  0
 18 36  1  0  0  0
 18 37  1  0  0  0
 20 21  1  0  0  0
 21 22  1  0  0  0
 22 23  1  0  0  0
 22 26  1  0  0  0
 22 27  1  0  0  0
 23 24  1  0  0  0
 23 25  2  0  0  0
 26 38  1  0  0  0
 26 39  1  0  0  0
 26 40  1  0  0  0
 27 41  1  0  0  0
 27 42  1  0  0  0
 27 43  1  0  0  0
M  CHG  2   8  -1  24  -1
M  END
> <s_m_entry_id>
27481

> <s_m_entry_name>
data_maestro.21

> <s_m_Source_Path>
C:\Users\olshana1\Git\GramNeg-Accumulation\Gram Negative Permeation - OmpF

> <s_m_Source_File>
data_maestro.csv

> <i_m_Source_File_Index>
21

> <s_m_job_name>
glide-dock_Nicaido_neutral

> <s_i_glide_gridfile>
3POX-grid

> <i_i_glide_lignum>
26

> <i_i_glide_rotatable_bonds>
8

> <r_i_docking_score>
-4.87392409383213

> <r_i_glide_ligand_efficiency>
-0.174068717636862

> <r_i_glide_ligand_efficiency_sa>
-0.528575147737526

> <r_i_glide_ligand_efficiency_ln>
-1.12504478548614

> <r_i_glide_gscore>
-4.87392409383213

> <r_i_glide_lipo>
0

> <r_i_glide_hbond>
-0.910383244785389

> <r_i_glide_metal>
0

> <r_i_glide_rewards>
-0.44619003566945

> <r_i_glide_evdw>
-23.8061122894287

> <r_i_glide_ecoul>
-15.2297687530518

> <r_i_glide_erotb>
0.635830109179744

> <r_i_glide_esite>
-0.678409995127837

> <r_i_glide_emodel>
-66.1009891781318

> <r_i_glide_energy>
-39.0358810424805

> <r_i_glide_einternal>
5.62828254699707

> <i_i_glide_confnum>
82

> <i_i_glide_posenum>
220

> <r_i_glide_eff_state_penalty>
0

> <r_glide_res:A132_vdw>
-2.61786641953866

> <r_glide_res:A132_coul>
-61.2852508257854

> <r_glide_res:A132_hbond>
-0.0501509920208314

> <r_glide_res:A132_dist>
2.38489607132147

> <r_glide_res:A132_Eint>
-63.9532682373449

> <r_glide_res:A117_vdw>
-3.07710332918359

> <r_glide_res:A117_coul>
33.853834269602

> <r_glide_res:A117_hbond>
-0.00126015382845877

> <r_glide_res:A117_dist>
2.49542220102163

> <r_glide_res:A117_Eint>
30.77547078659

> <r_glide_res:A113_vdw>
-1.8095584716445

> <r_glide_res:A113_coul>
38.910611450966

> <r_glide_res:A113_hbond>
0

> <r_glide_res:A113_dist>
2.8927376030994

> <r_glide_res:A113_Eint>
37.1010529793215

> <r_glide_res:A82_vdw>
1.44330936632946

> <r_glide_res:A82_coul>
-69.4548182134772

> <r_glide_res:A82_hbond>
-0.210313449032901

> <r_glide_res:A82_dist>
1.79134550032039

> <r_glide_res:A82_Eint>
-68.2218222961806

> <r_glide_res:A42_vdw>
0.953407279412882

> <r_glide_res:A42_coul>
-65.6680909018607

> <r_glide_res:A42_hbond>
-0.234489553692709

> <r_glide_res:A42_dist>
1.73824990280729

> <r_glide_res:A42_Eint>
-64.9491731761405

> <r_glide_res:A16_vdw>
-0.336559078391424

> <r_glide_res:A16_coul>
-41.8098246114792

> <r_glide_res:A16_hbond>
0

> <r_glide_res:A16_dist>
3.6380513195252

> <r_glide_res:A16_Eint>
-42.1463836898706

> <s_m_source_file>
ligprep_Nicaido_neutral.maegz

> <i_m_source_file_index>
21

> <i_lp_mmshare_version>
58128

> <i_f3d_flags>
0

> <s_lp_Force_Field>
S-OPLS

> <r_lp_Energy>
55.612973

> <b_lp_Chiralities_Consistent>
1

> <s_lp_Variant>
Aztreonam-1

> <s_epik_input>
Tz1TKD1PKShbT0hdKU4xQyg9TylbQ0BASF0oW0NAQEhdMVtDSDNdKVtOSF1DKD1PKS9DKGMyW2NIXXNjKG4yKVtOSDJdKT1OL09DKFtDSDNdKShbQ0gzXSlDKD1PKVtPSF0=

> <s_epik_cmdline>
J2VwaWtfcHl0aG9uJywgJy1waHQnLCAnMC4wJywgJy1waCcsICc3LjQnLCAnLW50JywgJy1tYScsICc1MDAnLCAnLWltYWUnLCAnPGluZmlsZS5tYWU+JywgJy1vbWFlJywgJzxvdXRmaWxlLm1hZT4n

> <r_lp_tautomer_probability>
1

> <r_epik_Ionization_Penalty>
  0.0004

> <r_epik_Ionization_Penalty_Charging>
  0.0000

> <r_epik_Ionization_Penalty_Neutral>
  0.0004

> <r_epik_State_Penalty>
  0.0000

> <r_epik_Charging_Adjusted_Penalty>
4.45674509427693e-05

> <i_epik_Tot_Q>
-2

> <i_epik_Tot_abs_Q>
2

> <s_epik_Chemistry_Notes>
This compound has an imine and may undergo hydrolysis.

> <s_m_subgroup_title>
glide-dock_Nicaido_neutral_pv1

> <s_m_subgroupid>
glide-dock_Nicaido_neutral_pv1

> <b_m_subgroup_collapsed>
0

$$$$
Ceftriaxone
                    3D
 Schrodinger Suite 2022-2.
 52 55  0  0  1  0            999 V2000
  -23.3672  -23.7339  -24.9020 C   0  0  0  0  0  0
  -23.3654  -24.1732  -23.5124 N   0  0  0  0  0  0
  -23.5034  -23.2361  -22.4526 C   0  0  0  0  0  0
  -24.3596  -21.6902  -22.9658 S   0  0  0  0  0  0
  -25.0877  -21.0900  -21.3981 C   0  0  0  0  0  0
  -26.6166  -21.0383  -21.4190 C   0  0  0  0  0  0
  -27.4014  -22.1461  -21.3666 C   0  0  0  0  0  0
  -28.8036  -22.1171  -21.3557 N   0  0  0  0  0  0
  -29.5805  -20.9292  -21.0828 C   0  0  2  0  0  0
  -30.8073  -21.7401  -21.5610 C   0  0  2  0  0  0
  -29.8930  -22.9671  -21.2859 C   0  0  0  0  0  0
  -29.9994  -24.1629  -21.1069 O   0  0  0  0  0  0
  -31.0633  -21.4752  -22.9847 N   0  0  0  0  0  0
  -31.4501  -22.3765  -23.9045 C   0  0  0  0  0  0
  -31.2559  -21.9262  -25.3620 C   0  0  0  0  0  0
  -30.8403  -20.5133  -25.5693 C   0  0  0  0  0  0
  -29.5391  -20.1114  -25.3671 C   0  0  0  0  0  0
  -29.3081  -18.4206  -25.7283 S   0  0  0  0  0  0
  -31.0009  -18.3288  -26.1809 C   0  0  0  0  0  0
  -31.5692  -17.1525  -26.6332 N   0  0  0  0  0  0
  -31.6542  -19.4881  -26.0685 N   0  0  0  0  0  0
  -31.4057  -22.6397  -26.4134 N   0  0  0  0  0  0
  -31.6749  -23.9957  -26.1804 O   0  0  0  0  0  0
  -32.2512  -24.5453  -27.3513 C   0  0  0  0  0  0
  -31.8812  -23.4893  -23.6007 O   0  0  0  0  0  0
  -28.8958  -19.5474  -22.0415 S   0  0  0  0  0  0
  -27.1859  -19.6257  -21.4488 C   0  0  0  0  0  0
  -26.8192  -23.5691  -21.4299 C   0  0  0  0  0  0
  -27.1690  -24.2639  -22.4133 O   0  5  0  0  0  0
  -26.1361  -23.9497  -20.4563 O   0  0  0  0  0  0
  -23.0986  -23.4541  -21.2331 N   0  0  0  0  0  0
  -22.6125  -24.7155  -20.8981 C   0  0  0  0  0  0
  -22.7786  -25.8597  -21.9470 C   0  0  0  0  0  0
  -22.5787  -27.0058  -21.5473 O   0  0  0  0  0  0
  -23.1689  -25.5495  -23.2133 N   0  5  0  0  0  0
  -22.1001  -24.9900  -19.8121 O   0  0  0  0  0  0
  -22.6850  -22.8951  -25.0468 H   0  0  0  0  0  0
  -23.0502  -24.5384  -25.5658 H   0  0  0  0  0  0
  -24.3670  -23.4274  -25.2074 H   0  0  0  0  0  0
  -24.6902  -20.0929  -21.2074 H   0  0  0  0  0  0
  -24.7713  -21.6839  -20.5429 H   0  0  0  0  0  0
  -29.5483  -20.7454  -20.0134 H   0  0  0  0  0  0
  -31.6731  -21.6260  -20.9077 H   0  0  0  0  0  0
  -30.7344  -20.5741  -23.3039 H   0  0  0  0  0  0
  -28.7022  -20.6897  -25.0020 H   0  0  0  0  0  0
  -32.5727  -17.0658  -26.5887 H   0  0  0  0  0  0
  -31.0770  -16.2858  -26.4133 H   0  0  0  0  0  0
  -32.4785  -25.5985  -27.1831 H   0  0  0  0  0  0
  -33.1847  -24.0415  -27.6072 H   0  0  0  0  0  0
  -31.5719  -24.4830  -28.2013 H   0  0  0  0  0  0
  -27.1302  -19.1954  -20.4483 H   0  0  0  0  0  0
  -26.5769  -19.0057  -22.1061 H   0  0  0  0  0  0
  1  2  1  0  0  0
  1 37  1  0  0  0
  1 38  1  0  0  0
  1 39  1  0  0  0
  2 35  1  0  0  0
  2  3  1  0  0  0
  3  4  1  0  0  0
  3 31  2  0  0  0
  4  5  1  0  0  0
  5  6  1  0  0  0
  5 40  1  0  0  0
  5 41  1  0  0  0
  6 27  1  0  0  0
  6  7  2  0  0  0
  7  8  1  0  0  0
  7 28  1  0  0  0
  8 11  1  0  0  0
  8  9  1  0  0  0
  9 10  1  0  0  0
  9 26  1  0  0  0
  9 42  1  0  0  0
 10 11  1  0  0  0
 10 13  1  0  0  0
 10 43  1  0  0  0
 11 12  2  0  0  0
 13 14  1  0  0  0
 13 44  1  0  0  0
 14 15  1  0  0  0
 14 25  2  0  0  0
 15 16  1  0  0  0
 15 22  2  3  0  0
 16 21  1  0  0  0
 16 17  2  0  0  0
 17 18  1  0  0  0
 17 45  1  0  0  0
 18 19  1  0  0  0
 19 20  1  0  0  0
 19 21  2  0  0  0
 20 46  1  0  0  0
 20 47  1  0  0  0
 22 23  1  0  0  0
 23 24  1  0  0  0
 24 48  1  0  0  0
 24 49  1  0  0  0
 24 50  1  0  0  0
 26 27  1  0  0  0
 27 51  1  0  0  0
 27 52  1  0  0  0
 28 29  1  0  0  0
 28 30  2  0  0  0
 31 32  1  0  0  0
 32 33  1  0  0  0
 32 36  2  0  0  0
 33 34  2  0  0  0
 33 35  1  0  0  0
M  CHG  2  29  -1  35  -1
M  END
> <s_m_entry_id>
27482

> <s_m_entry_name>
data_maestro.22

> <s_m_Source_Path>
C:\Users\olshana1\Git\GramNeg-Accumulation\Gram Negative Permeation - OmpF

> <s_m_Source_File>
data_maestro.csv

> <i_m_Source_File_Index>
22

> <s_m_job_name>
glide-dock_Nicaido_neutral

> <s_i_glide_gridfile>
3POX-grid

> <i_i_glide_lignum>
29

> <i_i_glide_rotatable_bonds>
9

> <r_i_docking_score>
-4.86692798773688

> <r_i_glide_ligand_efficiency>
-0.135192444103802

> <r_i_glide_ligand_efficiency_sa>
-0.446395614497786

> <r_i_glide_ligand_efficiency_ln>
-1.06183219772541

> <r_i_glide_gscore>
-4.86692798773688

> <r_i_glide_lipo>
0

> <r_i_glide_hbond>
-0.920278048637517

> <r_i_glide_metal>
0

> <r_i_glide_rewards>
0.0544284208712481

> <r_i_glide_evdw>
-30.268102645874

> <r_i_glide_ecoul>
-14.5799970626831

> <r_i_glide_erotb>
0.472124986767549

> <r_i_glide_esite>
-0.772798655041993

> <r_i_glide_emodel>
-74.4735358834625

> <r_i_glide_energy>
-44.8480997085571

> <r_i_glide_einternal>
9.79532527923584

> <i_i_glide_confnum>
147

> <i_i_glide_posenum>
59

> <r_i_glide_eff_state_penalty>
0

> <r_glide_res:A132_vdw>
-1.72808725429755

> <r_glide_res:A132_coul>
-87.7365125232393

> <r_glide_res:A132_hbond>
-0.227105100333636

> <r_glide_res:A132_dist>
1.83956286611804

> <r_glide_res:A132_Eint>
-89.6917048778704

> <r_glide_res:A117_vdw>
-3.78993955888235

> <r_glide_res:A117_coul>
33.401489472225

> <r_glide_res:A117_hbond>
0

> <r_glide_res:A117_dist>
2.4017030699655

> <r_glide_res:A117_Eint>
29.6115499133426

> <r_glide_res:A113_vdw>
-1.83658039213658

> <r_glide_res:A113_coul>
31.8796156238808

> <r_glide_res:A113_hbond>
0

> <r_glide_res:A113_dist>
2.09368298146667

> <r_glide_res:A113_Eint>
30.0430352317442

> <r_glide_res:A82_vdw>
0.746183029514252

> <r_glide_res:A82_coul>
-84.3835173672717

> <r_glide_res:A82_hbond>
-0.192849641176607

> <r_glide_res:A82_dist>
1.58569928235321

> <r_glide_res:A82_Eint>
-83.8301839789341

> <r_glide_res:A42_vdw>
-2.88625750648773

> <r_glide_res:A42_coul>
-53.211833204318

> <r_glide_res:A42_hbond>
0

> <r_glide_res:A42_dist>
2.20132549196942

> <r_glide_res:A42_Eint>
-56.0980907108057

> <r_glide_res:A16_vdw>
-2.08647826901638

> <r_glide_res:A16_coul>
-38.0514168289751

> <r_glide_res:A16_hbond>
0

> <r_glide_res:A16_dist>
2.20070840793846

> <r_glide_res:A16_Eint>
-40.1378950979915

> <s_m_source_file>
ligprep_Nicaido_neutral.maegz

> <i_m_source_file_index>
22

> <i_lp_mmshare_version>
58128

> <i_f3d_flags>
0

> <s_lp_Force_Field>
S-OPLS

> <r_lp_Energy>
111.196812

> <b_lp_Chiralities_Consistent>
1

> <s_lp_Variant>
Ceftriaxone-2

> <s_epik_input>
W09IXWMobjEpYyg9TyluYyhuMVtDSDNdKVNbQ0gyXUMoPUMyQyg9TylbT0hdKVtDSDJdU1tDQEhdKE4yMylbQ0BIXShDMz1PKVtOSF1DKD1PKS9DKD1OL09bQ0gzXSljNFtjSF1zYyhuNClbTkgyXQ==

> <s_epik_cmdline>
J2VwaWtfcHl0aG9uJywgJy1waHQnLCAnMC4wJywgJy1waCcsICc3LjQnLCAnLW50JywgJy1tYScsICc1MDAnLCAnLWltYWUnLCAnPGluZmlsZS5tYWU+JywgJy1vbWFlJywgJzxvdXRmaWxlLm1hZT4n

> <r_lp_tautomer_probability>
1

> <r_epik_Ionization_Penalty>
  0.0014

> <r_epik_Ionization_Penalty_Charging>
  0.0010

> <r_epik_Ionization_Penalty_Neutral>
  0.0004

> <r_epik_State_Penalty>
  0.0000

> <r_epik_Charging_Adjusted_Penalty>
0.000994184415634904

> <i_epik_Tot_Q>
-2

> <i_epik_Tot_abs_Q>
2

> <s_epik_Chemistry_Notes>
This compound has an imine and may undergo hydrolysis. This compound contains an acetal/aminal-like group ( X-CH(R)-Y where X, Y are N, S, or O) that may be acid/base labile, releasing an aldehyde.

> <s_m_subgroup_title>
glide-dock_Nicaido_neutral_pv1

> <s_m_subgroupid>
glide-dock_Nicaido_neutral_pv1

> <b_m_subgroup_collapsed>
0

$$$$
Ofloxacin
                    3D
 Schrodinger Suite 2022-2.
 46 49  0  0  1  0            999 V2000
  -23.2819  -22.1514  -17.3732 C   0  0  0  0  0  0
  -24.0758  -23.4435  -17.6276 C   0  0  1  0  0  0
  -25.5902  -23.2117  -17.5946 C   0  0  0  0  0  0
  -25.9670  -22.3626  -18.6614 O   0  0  0  0  0  0
  -25.4191  -22.6835  -19.8805 C   0  0  0  0  0  0
  -24.3021  -23.5446  -20.0495 C   0  0  0  0  0  0
  -23.6807  -24.0920  -18.8814 N   0  0  0  0  0  0
  -22.6496  -25.0265  -18.9507 C   0  0  0  0  0  0
  -22.0469  -25.4608  -20.0819 C   0  0  0  0  0  0
  -22.5539  -24.8864  -21.3654 C   0  0  0  0  0  0
  -23.7146  -23.9486  -21.2696 C   0  0  0  0  0  0
  -24.3237  -23.3933  -22.4178 C   0  0  0  0  0  0
  -25.4229  -22.5182  -22.3324 C   0  0  0  0  0  0
  -25.9401  -22.0351  -23.4892 F   0  0  0  0  0  0
  -25.9732  -22.1586  -21.0753 C   0  0  0  0  0  0
  -27.0721  -21.2796  -20.9660 N   0  0  0  0  0  0
  -26.6933  -19.8797  -20.7601 C   0  0  0  0  0  0
  -27.9134  -18.9939  -20.4321 C   0  0  0  0  0  0
  -28.9791  -19.2148  -21.4383 N   0  3  0  0  0  0
  -29.4159  -20.6314  -21.4174 C   0  0  0  0  0  0
  -28.2359  -21.5330  -21.8120 C   0  0  0  0  0  0
  -30.1011  -18.2541  -21.3728 C   0  0  0  0  0  0
  -22.0719  -25.1572  -22.4713 O   0  0  0  0  0  0
  -20.8909  -26.5409  -20.0133 C   0  0  0  0  0  0
  -20.6134  -27.1499  -21.0683 O   0  5  0  0  0  0
  -20.3686  -26.7494  -18.8894 O   0  0  0  0  0  0
  -23.5587  -21.7085  -16.4162 H   0  0  0  0  0  0
  -22.2104  -22.3493  -17.3466 H   0  0  0  0  0  0
  -23.4645  -21.4049  -18.1473 H   0  0  0  0  0  0
  -23.8426  -24.1324  -16.8144 H   0  0  0  0  0  0
  -26.1283  -24.1573  -17.6750 H   0  0  0  0  0  0
  -25.8923  -22.7505  -16.6519 H   0  0  0  0  0  0
  -22.3447  -25.3964  -17.9838 H   0  0  0  0  0  0
  -23.9350  -23.6368  -23.3967 H   0  0  0  0  0  0
  -25.9645  -19.8031  -19.9520 H   0  0  0  0  0  0
  -26.2042  -19.5103  -21.6622 H   0  0  0  0  0  0
  -27.6078  -17.9500  -20.4144 H   0  0  0  0  0  0
  -28.3047  -19.2262  -19.4402 H   0  0  0  0  0  0
  -30.2457  -20.7848  -22.1092 H   0  0  0  0  0  0
  -29.7763  -20.8941  -20.4194 H   0  0  0  0  0  0
  -27.9969  -21.3397  -22.8562 H   0  0  0  0  0  0
  -28.5282  -22.5799  -21.7328 H   0  0  0  0  0  0
  -30.5602  -18.2479  -20.3884 H   0  0  0  0  0  0
  -29.7536  -17.2491  -21.6135 H   0  0  0  0  0  0
  -30.8683  -18.5053  -22.1030 H   0  0  0  0  0  0
  -28.5409  -19.0523  -22.3347 H   0  0  0  0  0  0
  1  2  1  0  0  0
  1 27  1  0  0  0
  1 28  1  0  0  0
  1 29  1  0  0  0
  2  7  1  0  0  0
  2  3  1  0  0  0
  2 30  1  0  0  0
  3  4  1  0  0  0
  3 31  1  0  0  0
  3 32  1  0  0  0
  4  5  1  0  0  0
  5 15  1  0  0  0
  5  6  2  0  0  0
  6 11  1  0  0  0
  6  7  1  0  0  0
  7  8  1  0  0  0
  8  9  2  0  0  0
  8 33  1  0  0  0
  9 10  1  0  0  0
  9 24  1  0  0  0
 10 11  1  0  0  0
 10 23  2  0  0  0
 11 12  2  0  0  0
 12 13  1  0  0  0
 12 34  1  0  0  0
 13 14  1  0  0  0
 13 15  2  0  0  0
 15 16  1  0  0  0
 16 21  1  0  0  0
 16 17  1  0  0  0
 17 18  1  0  0  0
 17 35  1  0  0  0
 17 36  1  0  0  0
 18 19  1  0  0  0
 18 37  1  0  0  0
 18 38  1  0  0  0
 19 20  1  0  0  0
 19 22  1  0  0  0
 19 46  1  0  0  0
 20 21  1  0  0  0
 20 39  1  0  0  0
 20 40  1  0  0  0
 21 41  1  0  0  0
 21 42  1  0  0  0
 22 43  1  0  0  0
 22 44  1  0  0  0
 22 45  1  0  0  0
 24 25  1  0  0  0
 24 26  2  0  0  0
M  CHG  2  19   1  25  -1
M  END
> <s_m_entry_id>
27483

> <s_m_entry_name>
data_maestro.32

> <s_m_Source_Path>
C:\Users\olshana1\Git\GramNeg-Accumulation\Gram Negative Permeation - OmpF

> <s_m_Source_File>
data_maestro.csv

> <i_m_Source_File_Index>
32

> <s_m_job_name>
glide-dock_Nicaido_neutral

> <s_i_glide_gridfile>
3POX-grid

> <i_i_glide_lignum>
41

> <i_i_glide_rotatable_bonds>
2

> <r_i_docking_score>
-4.86522457866208

> <r_i_glide_ligand_efficiency>
-0.187124022256234

> <r_i_glide_ligand_efficiency_sa>
-0.55435417963662

> <r_i_glide_ligand_efficiency_ln>
-1.14258202819486

> <r_i_glide_gscore>
-4.86522457866208

> <r_i_glide_lipo>
0

> <r_i_glide_hbond>
-0.346529567673185

> <r_i_glide_metal>
0

> <r_i_glide_rewards>
-1.17022157045454

> <r_i_glide_evdw>
-20.82790184021

> <r_i_glide_ecoul>
-14.6758842468262

> <r_i_glide_erotb>
0.146950134654495

> <r_i_glide_esite>
-0.25264584615442

> <r_i_glide_emodel>
-58.1038272821737

> <r_i_glide_energy>
-35.5037860870361

> <r_i_glide_einternal>
1.25297439098358

> <i_i_glide_confnum>
5

> <i_i_glide_posenum>
272

> <r_i_glide_eff_state_penalty>
0

> <r_glide_res:A132_vdw>
-2.39892437630929

> <r_glide_res:A132_coul>
-3.58487798816698

> <r_glide_res:A132_hbond>
0

> <r_glide_res:A132_dist>
2.86559506553041

> <r_glide_res:A132_Eint>
-5.98380236447627

> <r_glide_res:A117_vdw>
-2.01043004055679

> <r_glide_res:A117_coul>
-15.744165012084

> <r_glide_res:A117_hbond>
0

> <r_glide_res:A117_dist>
2.48345527951808

> <r_glide_res:A117_Eint>
-17.7545950526408

> <r_glide_res:A113_vdw>
-2.24373730031898

> <r_glide_res:A113_coul>
-25.8237329953566

> <r_glide_res:A113_hbond>
0

> <r_glide_res:A113_dist>
2.31764627436618

> <r_glide_res:A113_Eint>
-28.0674702956756

> <r_glide_res:A82_vdw>
-1.01595487130015

> <r_glide_res:A82_coul>
1.1751391583577

> <r_glide_res:A82_hbond>
0

> <r_glide_res:A82_dist>
3.46367437577171

> <r_glide_res:A82_Eint>
0.159184287057553

> <r_glide_res:A42_vdw>
-0.527409903876056

> <r_glide_res:A42_coul>
2.7658572988141

> <r_glide_res:A42_hbond>
0

> <r_glide_res:A42_dist>
2.97627348546934

> <r_glide_res:A42_Eint>
2.23844739493805

> <r_glide_res:A16_vdw>
-0.0648212491636623

> <r_glide_res:A16_coul>
8.43043812523016

> <r_glide_res:A16_hbond>
0

> <r_glide_res:A16_dist>
5.74499194209501

> <r_glide_res:A16_Eint>
8.3656168760665

> <s_m_source_file>
ligprep_Nicaido_neutral.maegz

> <i_m_source_file_index>
32

> <i_lp_mmshare_version>
58128

> <i_f3d_flags>
0

> <s_lp_Force_Field>
S-OPLS

> <r_lp_Energy>
60.370079

> <b_lp_Chiralities_Consistent>
1

> <s_lp_Variant>
Ofloxacin-1

> <s_epik_input>
TzFbQ0gyXVtDQEhdKFtDSDNdKW4oYzJjMTMpW2NIXWMoQyg9TylbT0hdKWMoPU8pYzJbY0hdYyhGKWMzTjRbQ0gyXVtDSDJdTihbQ0gzXSlbQ0gyXVtDSDJdNA==

> <s_epik_cmdline>
J2VwaWtfcHl0aG9uJywgJy1waHQnLCAnMC4wJywgJy1waCcsICc3LjQnLCAnLW50JywgJy1tYScsICc1MDAnLCAnLWltYWUnLCAnPGluZmlsZS5tYWU+JywgJy1vbWFlJywgJzxvdXRmaWxlLm1hZT4n

> <r_lp_tautomer_probability>
1

> <r_epik_Ionization_Penalty>
  0.1907

> <r_epik_Ionization_Penalty_Charging>
  0.1907

> <r_epik_Ionization_Penalty_Neutral>
  0.0000

> <r_epik_State_Penalty>
  0.0000

> <r_epik_Charging_Adjusted_Penalty>
0.190712686691679

> <i_epik_Tot_Q>
0

> <i_epik_Tot_abs_Q>
2

> <s_m_subgroup_title>
glide-dock_Nicaido_neutral_pv1

> <s_m_subgroupid>
glide-dock_Nicaido_neutral_pv1

> <b_m_subgroup_collapsed>
0

$$$$
BL-S217
                    3D
 Schrodinger Suite 2022-2.
 48 50  0  0  1  0            999 V2000
  -30.4781  -22.3496  -26.3224 O   0  0  0  0  0  0
  -30.9131  -21.6847  -25.4052 C   0  0  0  0  0  0
  -32.1088  -20.7342  -25.1745 C   0  0  2  0  0  0
  -31.7281  -20.8109  -23.6844 C   0  0  1  0  0  0
  -30.5061  -21.4757  -24.1004 N   0  0  0  0  0  0
  -29.4846  -21.8341  -23.1980 C   0  0  0  0  0  0
  -28.4939  -22.9337  -23.6939 C   0  0  0  0  0  0
  -28.3687  -23.9495  -22.9679 O   0  5  0  0  0  0
  -27.9689  -22.7495  -24.8134 O   0  0  0  0  0  0
  -29.3167  -21.2001  -22.0077 C   0  0  0  0  0  0
  -30.2880  -20.1480  -21.4797 C   0  0  0  0  0  0
  -31.2687  -19.3212  -22.7583 S   0  0  0  0  0  0
  -28.1291  -21.4460  -21.0776 C   0  0  0  0  0  0
  -28.5179  -21.9633  -19.8143 O   0  0  0  0  0  0
  -28.0652  -23.1492  -19.3784 C   0  0  0  0  0  0
  -28.4876  -23.4389  -17.9452 C   0  0  0  0  0  0
  -27.3730  -23.9495  -20.0126 O   0  0  0  0  0  0
  -33.3885  -21.3723  -25.4808 N   0  0  0  0  0  0
  -33.8164  -21.5941  -26.7330 C   0  0  0  0  0  0
  -35.0427  -22.4843  -26.9146 C   0  0  0  0  0  0
  -34.6184  -24.0445  -27.7534 S   0  0  0  0  0  0
  -35.3592  -24.0000  -29.3549 C   0  0  0  0  0  0
  -34.6253  -24.4211  -30.4833 C   0  0  0  0  0  0
  -35.2377  -24.3846  -31.7547 C   0  0  0  0  0  0
  -36.5173  -23.9495  -31.8857 N   0  3  0  0  0  0
  -37.1386  -23.8864  -33.2132 C   0  0  0  0  0  0
  -37.2503  -23.5576  -30.8139 C   0  0  0  0  0  0
  -36.6925  -23.5733  -29.5198 C   0  0  0  0  0  0
  -33.2319  -21.1523  -27.7227 O   0  0  0  0  0  0
  -31.9924  -19.7315  -25.5897 H   0  0  0  0  0  0
  -32.3560  -21.4779  -23.0889 H   0  0  0  0  0  0
  -30.9810  -20.6565  -20.8134 H   0  0  0  0  0  0
  -29.7620  -19.3903  -20.8973 H   0  0  0  0  0  0
  -27.3634  -22.0598  -21.5490 H   0  0  0  0  0  0
  -27.6481  -20.4840  -20.8998 H   0  0  0  0  0  0
  -28.0201  -24.3532  -17.5801 H   0  0  0  0  0  0
  -28.1936  -22.6163  -17.2928 H   0  0  0  0  0  0
  -29.5692  -23.5511  -17.8869 H   0  0  0  0  0  0
  -33.9147  -21.7537  -24.7079 H   0  0  0  0  0  0
  -35.7902  -21.9323  -27.4830 H   0  0  0  0  0  0
  -35.4888  -22.7180  -25.9470 H   0  0  0  0  0  0
  -33.6071  -24.7660  -30.3759 H   0  0  0  0  0  0
  -34.7332  -24.6888  -32.6614 H   0  0  0  0  0  0
  -36.3687  -23.9494  -33.9806 H   0  0  0  0  0  0
  -37.8358  -24.7208  -33.2998 H   0  0  0  0  0  0
  -37.6656  -22.9362  -33.3113 H   0  0  0  0  0  0
  -38.2614  -23.2335  -31.0156 H   0  0  0  0  0  0
  -37.2855  -23.2647  -28.6714 H   0  0  0  0  0  0
  1  2  2  0  0  0
  2  5  1  0  0  0
  2  3  1  0  0  0
  3  4  1  0  0  0
  3 18  1  0  0  0
  3 30  1  0  0  0
  4 12  1  0  0  0
  4  5  1  0  0  0
  4 31  1  0  0  0
  5  6  1  0  0  0
  6  7  1  0  0  0
  6 10  2  0  0  0
  7  8  1  0  0  0
  7  9  2  0  0  0
 10 11  1  0  0  0
 10 13  1  0  0  0
 11 12  1  0  0  0
 11 32  1  0  0  0
 11 33  1  0  0  0
 13 14  1  0  0  0
 13 34  1  0  0  0
 13 35  1  0  0  0
 14 15  1  0  0  0
 15 16  1  0  0  0
 15 17  2  0  0  0
 16 36  1  0  0  0
 16 37  1  0  0  0
 16 38  1  0  0  0
 18 19  1  0  0  0
 18 39  1  0  0  0
 19 20  1  0  0  0
 19 29  2  0  0  0
 20 21  1  0  0  0
 20 40  1  0  0  0
 20 41  1  0  0  0
 21 22  1  0  0  0
 22 28  1  0  0  0
 22 23  2  0  0  0
 23 24  1  0  0  0
 23 42  1  0  0  0
 24 25  2  0  0  0
 24 43  1  0  0  0
 25 26  1  0  0  0
 25 27  1  0  0  0
 26 44  1  0  0  0
 26 45  1  0  0  0
 26 46  1  0  0  0
 27 28  2  0  0  0
 27 47  1  0  0  0
 28 48  1  0  0  0
M  CHG  2   8  -1  25   1
M  END
> <s_m_entry_id>
27484

> <s_m_entry_name>
data_maestro.17

> <s_m_Source_Path>
C:\Users\olshana1\Git\GramNeg-Accumulation\Gram Negative Permeation - OmpF

> <s_m_Source_File>
data_maestro.csv

> <i_m_Source_File_Index>
17

> <s_m_job_name>
glide-dock_Nicaido_neutral

> <s_i_glide_gridfile>
3POX-grid

> <i_i_glide_lignum>
22

> <i_i_glide_rotatable_bonds>
9

> <r_i_docking_score>
-4.86410523518295

> <r_i_glide_ligand_efficiency>
-0.167727766730447

> <r_i_glide_ligand_efficiency_sa>
-0.515312839282258

> <r_i_glide_ligand_efficiency_ln>
-1.11375675579046

> <r_i_glide_gscore>
-4.86410523518295

> <r_i_glide_lipo>
-0.107416464442424

> <r_i_glide_hbond>
-1.13234385513788

> <r_i_glide_metal>
0

> <r_i_glide_rewards>
-0.424111370886924

> <r_i_glide_evdw>
-22.0984172821045

> <r_i_glide_ecoul>
-16.2512130737305

> <r_i_glide_erotb>
0.729326637690335

> <r_i_glide_esite>
-0.386957357241263

> <r_i_glide_emodel>
-67.4964779382585

> <r_i_glide_energy>
-38.349630355835

> <r_i_glide_einternal>
3.78548502922058

> <i_i_glide_confnum>
178

> <i_i_glide_posenum>
359

> <r_i_glide_eff_state_penalty>
0

> <r_glide_res:A132_vdw>
-1.45389166020322

> <r_glide_res:A132_coul>
-25.7457673234183

> <r_glide_res:A132_hbond>
-0.178054323334167

> <r_glide_res:A132_dist>
2.00731136806389

> <r_glide_res:A132_Eint>
-27.3777133069557

> <r_glide_res:A117_vdw>
-1.1561266913467

> <r_glide_res:A117_coul>
12.4121292089585

> <r_glide_res:A117_hbond>
0

> <r_glide_res:A117_dist>
3.99714137381228

> <r_glide_res:A117_Eint>
11.2560025176118

> <r_glide_res:A113_vdw>
-2.43338944908025

> <r_glide_res:A113_coul>
7.5431810077537

> <r_glide_res:A113_hbond>
0

> <r_glide_res:A113_dist>
2.29439923165993

> <r_glide_res:A113_Eint>
5.10979155867345

> <r_glide_res:A82_vdw>
0.11353521280266

> <r_glide_res:A82_coul>
-35.5334528953671

> <r_glide_res:A82_hbond>
-0.307240820166062

> <r_glide_res:A82_dist>
1.88913203013405

> <r_glide_res:A82_Eint>
-35.7271585027305

> <r_glide_res:A42_vdw>
1.54162279524594

> <r_glide_res:A42_coul>
-37.7848204635664

> <r_glide_res:A42_hbond>
-0.383135714626294

> <r_glide_res:A42_dist>
1.76592693406

> <r_glide_res:A42_Eint>
-36.6263333829467

> <r_glide_res:A16_vdw>
-1.73299040712927

> <r_glide_res:A16_coul>
-19.8848907757014

> <r_glide_res:A16_hbond>
-0.263912997011358

> <r_glide_res:A16_dist>
1.83351579117572

> <r_glide_res:A16_Eint>
-21.881794179842

> <s_m_source_file>
ligprep_Nicaido_neutral.maegz

> <i_m_source_file_index>
17

> <i_lp_mmshare_version>
58128

> <i_f3d_flags>
0

> <s_lp_Force_Field>
S-OPLS

> <r_lp_Energy>
45.233938

> <b_lp_Chiralities_Consistent>
1

> <s_lp_Variant>
BL-S217-1

> <s_epik_input>
W0NIM11DKD1PKU9bQ0gyXUMoW0NIMl1TMSk9QyhDKD1PKVtPSF0pTihbQ0BASF0xMilDKD1PKVtDQEhdMltOSF1DKD1PKVtDSDJdU2MzW2NIXVtjSF1bbitdKFtDSDNdKVtjSF1bY0hdMw==

> <s_epik_cmdline>
J2VwaWtfcHl0aG9uJywgJy1waHQnLCAnMC4wJywgJy1waCcsICc3LjQnLCAnLW50JywgJy1tYScsICc1MDAnLCAnLWltYWUnLCAnPGluZmlsZS5tYWU+JywgJy1vbWFlJywgJzxvdXRmaWxlLm1hZT4n

> <r_lp_tautomer_probability>
1

> <r_epik_Ionization_Penalty>
  0.0000

> <r_epik_Ionization_Penalty_Charging>
  0.0000

> <r_epik_Ionization_Penalty_Neutral>
  0.0000

> <r_epik_State_Penalty>
  0.0000

> <r_epik_Charging_Adjusted_Penalty>
6.14912740637116e-06

> <i_epik_Tot_Q>
0

> <i_epik_Tot_abs_Q>
2

> <s_epik_Chemistry_Notes>
This compound has an ester and may undergo hydrolysis at high or low pH. This compound contains an acetal/aminal-like group ( X-CH(R)-Y where X, Y are N, S, or O) that may be acid/base labile, releasing an aldehyde.

> <s_m_subgroup_title>
glide-dock_Nicaido_neutral_pv1

> <s_m_subgroupid>
glide-dock_Nicaido_neutral_pv1

> <b_m_subgroup_collapsed>
0

$$$$
LY097964
                    3D
 Schrodinger Suite 2022-2.
 40 42  0  0  1  0            999 V2000
  -24.4274  -22.8187  -16.3178 C   0  0  0  0  0  0
  -24.6662  -22.2208  -17.5772 O   0  0  0  0  0  0
  -25.8600  -22.7557  -18.0831 N   0  0  0  0  0  0
  -26.3526  -22.0711  -19.0384 C   0  0  0  0  0  0
  -25.7828  -20.7949  -19.5787 C   0  0  0  0  0  0
  -25.4669  -19.7285  -18.7683 C   0  0  0  0  0  0
  -24.8694  -18.3604  -19.6713 S   0  0  0  0  0  0
  -25.0735  -19.2982  -21.1422 C   0  0  0  0  0  0
  -24.7679  -18.7832  -22.3882 N   0  0  0  0  0  0
  -25.5357  -20.5315  -20.9358 N   0  0  0  0  0  0
  -27.6109  -22.5476  -19.7381 C   0  0  0  0  0  0
  -28.3773  -21.5332  -20.1736 N   0  0  0  0  0  0
  -29.5259  -21.5883  -21.0747 C   0  0  1  0  0  0
  -29.5711  -20.2933  -21.9123 C   0  0  1  0  0  0
  -29.5771  -21.1281  -23.0958 N   0  0  0  0  0  0
  -29.2635  -22.3051  -22.4301 C   0  0  0  0  0  0
  -28.9212  -23.4077  -22.8121 O   0  0  0  0  0  0
  -29.6436  -20.5838  -24.3931 C   0  0  0  0  0  0
  -29.1441  -21.5344  -25.5212 C   0  0  0  0  0  0
  -29.9689  -21.8391  -26.4135 O   0  5  0  0  0  0
  -27.9689  -21.9496  -25.4158 O   0  0  0  0  0  0
  -30.0424  -19.3021  -24.6289 C   0  0  0  0  0  0
  -30.5328  -18.3556  -23.5335 C   0  0  0  0  0  0
  -31.0179  -19.2015  -22.0090 S   0  0  0  0  0  0
  -30.0108  -18.6257  -25.9949 C   0  0  0  0  0  0
  -27.8568  -23.7479  -19.9108 O   0  0  0  0  0  0
  -23.4856  -22.4558  -15.9073 H   0  0  0  0  0  0
  -25.2164  -22.5706  -15.6055 H   0  0  0  0  0  0
  -24.3631  -23.9035  -16.4135 H   0  0  0  0  0  0
  -25.5682  -19.6608  -17.6941 H   0  0  0  0  0  0
  -25.1530  -19.2481  -23.1979 H   0  0  0  0  0  0
  -24.7205  -17.7798  -22.5012 H   0  0  0  0  0  0
  -28.1116  -20.6001  -19.8903 H   0  0  0  0  0  0
  -30.4734  -21.8192  -20.5860 H   0  0  0  0  0  0
  -28.6489  -19.7073  -21.8674 H   0  0  0  0  0  0
  -29.7418  -17.6399  -23.3061 H   0  0  0  0  0  0
  -31.3889  -17.7815  -23.8884 H   0  0  0  0  0  0
  -29.4215  -17.7099  -25.9368 H   0  0  0  0  0  0
  -29.5753  -19.2354  -26.7836 H   0  0  0  0  0  0
  -31.0209  -18.3542  -26.3005 H   0  0  0  0  0  0
  1  2  1  0  0  0
  1 27  1  0  0  0
  1 28  1  0  0  0
  1 29  1  0  0  0
  2  3  1  0  0  0
  3  4  2  3  0  0
  4  5  1  0  0  0
  4 11  1  0  0  0
  5 10  1  0  0  0
  5  6  2  0  0  0
  6  7  1  0  0  0
  6 30  1  0  0  0
  7  8  1  0  0  0
  8  9  1  0  0  0
  8 10  2  0  0  0
  9 31  1  0  0  0
  9 32  1  0  0  0
 11 12  1  0  0  0
 11 26  2  0  0  0
 12 13  1  0  0  0
 12 33  1  0  0  0
 13 16  1  0  0  0
 13 14  1  0  0  0
 13 34  1  0  0  0
 14 24  1  0  0  0
 14 15  1  0  0  0
 14 35  1  0  0  0
 15 16  1  0  0  0
 15 18  1  0  0  0
 16 17  2  0  0  0
 18 19  1  0  0  0
 18 22  2  0  0  0
 19 20  1  0  0  0
 19 21  2  0  0  0
 22 23  1  0  0  0
 22 25  1  0  0  0
 23 24  1  0  0  0
 23 36  1  0  0  0
 23 37  1  0  0  0
 25 38  1  0  0  0
 25 39  1  0  0  0
 25 40  1  0  0  0
M  CHG  1  20  -1
M  END
> <s_m_entry_id>
27485

> <s_m_entry_name>
data_maestro.7

> <s_m_Source_Path>
C:\Users\olshana1\Git\GramNeg-Accumulation\Gram Negative Permeation - OmpF

> <s_m_Source_File>
data_maestro.csv

> <i_m_Source_File_Index>
7

> <s_m_job_name>
glide-dock_Nicaido_neutral

> <s_i_glide_gridfile>
3POX-grid

> <i_i_glide_lignum>
9

> <i_i_glide_rotatable_bonds>
6

> <r_i_docking_score>
-4.8641011212744

> <r_i_glide_ligand_efficiency>
-0.187080812356708

> <r_i_glide_ligand_efficiency_sa>
-0.554226170479296

> <r_i_glide_ligand_efficiency_ln>
-1.14231818791372

> <r_i_glide_gscore>
-4.8641011212744

> <r_i_glide_lipo>
0

> <r_i_glide_hbond>
-0.762427700750052

> <r_i_glide_metal>
0

> <r_i_glide_rewards>
-0.684853531613965

> <r_i_glide_evdw>
-31.2825031280518

> <r_i_glide_ecoul>
-12.4343852996826

> <r_i_glide_erotb>
0.622478626066327

> <r_i_glide_esite>
-0.610015563621728

> <r_i_glide_emodel>
-65.9928665377559

> <r_i_glide_energy>
-43.7168884277344

> <r_i_glide_einternal>
4.19333696365356

> <i_i_glide_confnum>
27

> <i_i_glide_posenum>
201

> <r_i_glide_eff_state_penalty>
0

> <r_glide_res:A132_vdw>
-1.51777310539847

> <r_glide_res:A132_coul>
-32.7055671898521

> <r_glide_res:A132_hbond>
-0.16

> <r_glide_res:A132_dist>
2.07082871928636

> <r_glide_res:A132_Eint>
-34.3833402952506

> <r_glide_res:A117_vdw>
-4.84905843007134

> <r_glide_res:A117_coul>
21.6058634039927

> <r_glide_res:A117_hbond>
0

> <r_glide_res:A117_dist>
2.53406681059061

> <r_glide_res:A117_Eint>
16.7568049739214

> <r_glide_res:A113_vdw>
-3.98002275615205

> <r_glide_res:A113_coul>
16.3124728239523

> <r_glide_res:A113_hbond>
0

> <r_glide_res:A113_dist>
2.56520604191607

> <r_glide_res:A113_Eint>
12.3324500678002

> <r_glide_res:A82_vdw>
-1.60685329060307

> <r_glide_res:A82_coul>
-39.1389555731591

> <r_glide_res:A82_hbond>
-0.0220118385412591

> <r_glide_res:A82_dist>
2.44278688679982

> <r_glide_res:A82_Eint>
-40.7678207023035

> <r_glide_res:A42_vdw>
1.86069491564531

> <r_glide_res:A42_coul>
-55.1867538013385

> <r_glide_res:A42_hbond>
-0.380415862208793

> <r_glide_res:A42_dist>
1.70950082855203

> <r_glide_res:A42_Eint>
-53.706474747902

> <r_glide_res:A16_vdw>
-0.273369825071238

> <r_glide_res:A16_coul>
-46.7653693872228

> <r_glide_res:A16_hbond>
-0.2

> <r_glide_res:A16_dist>
1.86430774413151

> <r_glide_res:A16_Eint>
-47.2387392122941

> <s_m_source_file>
ligprep_Nicaido_neutral.maegz

> <i_m_source_file_index>
7

> <i_lp_mmshare_version>
58128

> <i_f3d_flags>
0

> <s_lp_Force_Field>
S-OPLS

> <r_lp_Energy>
53.750759

> <b_lp_Chiralities_Consistent>
1

> <s_lp_Variant>
LY097964-1

> <s_epik_input>
W05IMl1jKG4xKXNbY0hdYzEvQyg9TlxPW0NIM10pQyg9TylbTkhdW0NAQEhdMkMoPU8pTihbQ0BIXTIzKUMoQyg9TylbT0hdKT1DKFtDSDJdUzMpW0NIM10=

> <s_epik_cmdline>
J2VwaWtfcHl0aG9uJywgJy1waHQnLCAnMC4wJywgJy1waCcsICc3LjQnLCAnLW50JywgJy1tYScsICc1MDAnLCAnLWltYWUnLCAnPGluZmlsZS5tYWU+JywgJy1vbWFlJywgJzxvdXRmaWxlLm1hZT4n

> <r_lp_tautomer_probability>
1

> <r_epik_Ionization_Penalty>
  0.0005

> <r_epik_Ionization_Penalty_Charging>
  0.0000

> <r_epik_Ionization_Penalty_Neutral>
  0.0005

> <r_epik_State_Penalty>
  0.0000

> <r_epik_Charging_Adjusted_Penalty>
1.64985111359435e-05

> <i_epik_Tot_Q>
-1

> <i_epik_Tot_abs_Q>
1

> <s_epik_Chemistry_Notes>
This compound has an imine and may undergo hydrolysis. This compound contains an acetal/aminal-like group ( X-CH(R)-Y where X, Y are N, S, or O) that may be acid/base labile, releasing an aldehyde.

> <s_m_subgroup_title>
glide-dock_Nicaido_neutral_pv1

> <s_m_subgroupid>
glide-dock_Nicaido_neutral_pv1

> <b_m_subgroup_collapsed>
0

$$$$
Cefacetrile
                    3D
 Schrodinger Suite 2022-2.
 35 36  0  0  1  0            999 V2000
  -18.9642  -21.8278  -25.1537 C   0  0  0  0  0  0
  -20.1437  -22.7398  -25.4575 C   0  0  0  0  0  0
  -21.1693  -22.0744  -26.0134 O   0  0  0  0  0  0
  -22.3682  -22.7452  -26.3865 C   0  0  0  0  0  0
  -23.5177  -22.2614  -25.5223 C   0  0  0  0  0  0
  -24.1100  -23.0222  -24.5639 C   0  0  0  0  0  0
  -25.0956  -22.4944  -23.7057 N   0  0  0  0  0  0
  -25.3089  -21.0631  -23.5592 C   0  0  2  0  0  0
  -26.4356  -21.3875  -22.5593 C   0  0  2  0  0  0
  -26.0330  -22.8718  -22.7568 C   0  0  0  0  0  0
  -26.3767  -23.9496  -22.3219 O   0  0  0  0  0  0
  -27.7870  -20.9888  -22.9836 N   0  0  0  0  0  0
  -28.5587  -21.4578  -23.9802 C   0  0  0  0  0  0
  -29.9321  -20.8051  -24.1057 C   0  0  0  0  0  0
  -30.7397  -21.4131  -25.1706 C   0  0  0  0  0  0
  -31.3676  -21.8967  -26.0135 N   0  0  0  0  0  0
  -28.2206  -22.3497  -24.7648 O   0  0  0  0  0  0
  -25.5283  -20.3502  -25.2134 S   0  0  0  0  0  0
  -23.8901  -20.8090  -25.8188 C   0  0  0  0  0  0
  -23.7207  -24.5274  -24.3592 C   0  0  0  0  0  0
  -22.7652  -24.7619  -23.5897 O   0  5  0  0  0  0
  -24.3692  -25.3748  -25.0144 O   0  0  0  0  0  0
  -20.0982  -23.9468  -25.2160 O   0  0  0  0  0  0
  -18.4224  -21.5989  -26.0715 H   0  0  0  0  0  0
  -19.3095  -20.8925  -24.7117 H   0  0  0  0  0  0
  -18.2787  -22.3080  -24.4554 H   0  0  0  0  0  0
  -22.2577  -23.8291  -26.3589 H   0  0  0  0  0  0
  -22.5910  -22.5018  -27.4257 H   0  0  0  0  0  0
  -24.4537  -20.5999  -23.0635 H   0  0  0  0  0  0
  -26.1933  -21.0045  -21.5673 H   0  0  0  0  0  0
  -28.1849  -20.2376  -22.4360 H   0  0  0  0  0  0
  -29.8185  -19.7431  -24.3240 H   0  0  0  0  0  0
  -30.4784  -20.8972  -23.1666 H   0  0  0  0  0  0
  -23.1444  -20.1498  -25.3713 H   0  0  0  0  0  0
  -23.8701  -20.6322  -26.8941 H   0  0  0  0  0  0
  1  2  1  0  0  0
  1 24  1  0  0  0
  1 25  1  0  0  0
  1 26  1  0  0  0
  2  3  1  0  0  0
  2 23  2  0  0  0
  3  4  1  0  0  0
  4  5  1  0  0  0
  4 27  1  0  0  0
  4 28  1  0  0  0
  5 19  1  0  0  0
  5  6  2  0  0  0
  6  7  1  0  0  0
  6 20  1  0  0  0
  7 10  1  0  0  0
  7  8  1  0  0  0
  8  9  1  0  0  0
  8 18  1  0  0  0
  8 29  1  0  0  0
  9 10  1  0  0  0
  9 12  1  0  0  0
  9 30  1  0  0  0
 10 11  2  0  0  0
 12 13  1  0  0  0
 12 31  1  0  0  0
 13 14  1  0  0  0
 13 17  2  0  0  0
 14 15  1  0  0  0
 14 32  1  0  0  0
 14 33  1  0  0  0
 15 16  3  0  0  0
 18 19  1  0  0  0
 19 34  1  0  0  0
 19 35  1  0  0  0
 20 21  1  0  0  0
 20 22  2  0  0  0
M  CHG  1  21  -1
M  END
> <s_m_entry_id>
27486

> <s_m_entry_name>
data_maestro.1

> <s_m_Source_Path>
C:\Users\olshana1\Git\GramNeg-Accumulation\Gram Negative Permeation - OmpF

> <s_m_Source_File>
data_maestro.csv

> <i_m_Source_File_Index>
1

> <s_m_job_name>
glide-dock_Nicaido_neutral

> <s_i_glide_gridfile>
3POX-grid

> <i_i_glide_lignum>
1

> <i_i_glide_rotatable_bonds>
7

> <r_i_docking_score>
-4.8630363992548

> <r_i_glide_ligand_efficiency>
-0.211436365184991

> <r_i_glide_ligand_efficiency_sa>
-0.601296896660979

> <r_i_glide_ligand_efficiency_ln>
-1.17592629691593

> <r_i_glide_gscore>
-4.8630363992548

> <r_i_glide_lipo>
-0.0399908549426539

> <r_i_glide_hbond>
-0.767108816364716

> <r_i_glide_metal>
0

> <r_i_glide_rewards>
-1.10238408042217

> <r_i_glide_evdw>
-21.5276622772217

> <r_i_glide_ecoul>
-13.9025173187256

> <r_i_glide_erotb>
0.660867222788296

> <r_i_glide_esite>
-0.452659158643628

> <r_i_glide_emodel>
-56.0916426046384

> <r_i_glide_energy>
-35.4301795959473

> <r_i_glide_einternal>
7.95660734176636

> <i_i_glide_confnum>
3

> <i_i_glide_posenum>
256

> <r_i_glide_eff_state_penalty>
0

> <r_glide_res:A132_vdw>
-1.20674720393676

> <r_glide_res:A132_coul>
-34.4353503150032

> <r_glide_res:A132_hbond>
-0.0443941105648946

> <r_glide_res:A132_dist>
2.30594760503234

> <r_glide_res:A132_Eint>
-35.6864916295049

> <r_glide_res:A117_vdw>
-2.3136306664524

> <r_glide_res:A117_coul>
16.5476235434414

> <r_glide_res:A117_hbond>
0

> <r_glide_res:A117_dist>
3.60911358205187

> <r_glide_res:A117_Eint>
14.233992876989

> <r_glide_res:A113_vdw>
-0.353722723375454

> <r_glide_res:A113_coul>
11.4957962014574

> <r_glide_res:A113_hbond>
0

> <r_glide_res:A113_dist>
4.64125682166232

> <r_glide_res:A113_Eint>
11.1420734780819

> <r_glide_res:A82_vdw>
-1.69947751210614

> <r_glide_res:A82_coul>
-48.0266470753394

> <r_glide_res:A82_hbond>
-0.323772169211197

> <r_glide_res:A82_dist>
2.02745212034445

> <r_glide_res:A82_Eint>
-50.0498967566567

> <r_glide_res:A42_vdw>
-3.2863783221284

> <r_glide_res:A42_coul>
-43.9898678154079

> <r_glide_res:A42_hbond>
-0.194332526731706

> <r_glide_res:A42_dist>
2.06057465497158

> <r_glide_res:A42_Eint>
-47.470578664268

> <r_glide_res:A16_vdw>
-0.541778075631419

> <r_glide_res:A16_coul>
-26.546454380539

> <r_glide_res:A16_hbond>
-0.00461000985691827

> <r_glide_res:A16_dist>
2.47636257799506

> <r_glide_res:A16_Eint>
-27.0928424660273

> <s_m_source_file>
ligprep_Nicaido_neutral.maegz

> <i_m_source_file_index>
1

> <i_lp_mmshare_version>
58128

> <i_f3d_flags>
0

> <s_lp_Force_Field>
S-OPLS

> <r_lp_Energy>
24.277434

> <b_lp_Chiralities_Consistent>
1

> <s_lp_Variant>
Cefacetrile-1

> <s_epik_input>
W0NIM11DKD1PKU9bQ0gyXUMoPUMxQyg9TylbT0hdKVtDSDJdU1tDQEhdKE4xMilbQ0BIXShDMj1PKVtOSF1DKD1PKVtDSDJdQyNO

> <s_epik_cmdline>
J2VwaWtfcHl0aG9uJywgJy1waHQnLCAnMC4wJywgJy1waCcsICc3LjQnLCAnLW50JywgJy1tYScsICc1MDAnLCAnLWltYWUnLCAnPGluZmlsZS5tYWU+JywgJy1vbWFlJywgJzxvdXRmaWxlLm1hZT4n

> <r_lp_tautomer_probability>
1

> <r_epik_Ionization_Penalty>
  0.0000

> <r_epik_Ionization_Penalty_Charging>
  0.0000

> <r_epik_Ionization_Penalty_Neutral>
  0.0000

> <r_epik_State_Penalty>
  0.0000

> <r_epik_Charging_Adjusted_Penalty>
5.96156609429709e-06

> <i_epik_Tot_Q>
-1

> <i_epik_Tot_abs_Q>
1

> <s_epik_Chemistry_Notes>
This compound has an ester and may undergo hydrolysis at high or low pH. This compound contains an acetal/aminal-like group ( X-CH(R)-Y where X, Y are N, S, or O) that may be acid/base labile, releasing an aldehyde.

> <s_m_subgroup_title>
glide-dock_Nicaido_neutral_pv1

> <s_m_subgroupid>
glide-dock_Nicaido_neutral_pv1

> <b_m_subgroup_collapsed>
0

$$$$
Ceftriaxone
                    3D
 Schrodinger Suite 2022-2.
 52 55  0  0  1  0            999 V2000
  -20.4887  -23.1360  -23.4845 C   0  0  0  0  0  0
  -21.7682  -23.6269  -22.9892 N   0  0  0  0  0  0
  -22.4675  -22.9414  -21.9620 C   0  0  0  0  0  0
  -21.3594  -21.9093  -20.9176 S   0  0  0  0  0  0
  -21.8392  -22.2723  -19.1873 C   0  0  0  0  0  0
  -23.3403  -22.2828  -18.9058 C   0  0  0  0  0  0
  -24.0432  -23.4170  -18.6406 C   0  0  0  0  0  0
  -25.4387  -23.4123  -18.4886 N   0  0  0  0  0  0
  -26.1995  -22.2212  -18.1566 C   0  0  2  0  0  0
  -27.4720  -23.0797  -18.2811 C   0  0  2  0  0  0
  -26.5060  -24.2849  -18.4133 C   0  0  0  0  0  0
  -26.5781  -25.4958  -18.4135 O   0  0  0  0  0  0
  -28.2130  -22.7907  -19.5022 N   0  0  0  0  0  0
  -29.2104  -23.5492  -19.9827 C   0  0  0  0  0  0
  -29.7436  -23.1242  -21.3357 C   0  0  0  0  0  0
  -29.3339  -21.7678  -21.7828 C   0  0  0  0  0  0
  -30.1592  -20.6811  -21.6154 C   0  0  0  0  0  0
  -29.4091  -19.2043  -22.1573 S   0  0  0  0  0  0
  -27.9861  -20.1399  -22.5992 C   0  0  0  0  0  0
  -26.8631  -19.5496  -23.1441 N   0  0  0  0  0  0
  -28.0966  -21.4454  -22.3545 N   0  0  0  0  0  0
  -30.4790  -23.9158  -22.0123 N   0  0  0  0  0  0
  -30.8298  -23.4003  -23.2692 O   0  0  0  0  0  0
  -32.0139  -24.0563  -23.6878 C   0  0  0  0  0  0
  -29.6291  -24.5540  -19.4069 O   0  0  0  0  0  0
  -25.7561  -20.9151  -19.3404 S   0  0  0  0  0  0
  -23.9775  -20.8929  -18.9939 C   0  0  0  0  0  0
  -23.3818  -24.8353  -18.6131 C   0  0  0  0  0  0
  -22.7700  -25.1494  -17.5651 O   0  5  0  0  0  0
  -23.5685  -25.5494  -19.6225 O   0  0  0  0  0  0
  -23.7572  -23.0155  -21.7915 N   0  0  0  0  0  0
  -24.4986  -23.8805  -22.5892 C   0  0  0  0  0  0
  -23.7167  -24.8570  -23.5282 C   0  0  0  0  0  0
  -24.3689  -25.7040  -24.1410 O   0  0  0  0  0  0
  -22.3689  -24.7490  -23.6134 N   0  5  0  0  0  0
  -25.7291  -23.9471  -22.5631 O   0  0  0  0  0  0
  -19.6919  -23.3585  -22.7747 H   0  0  0  0  0  0
  -20.2353  -23.6063  -24.4348 H   0  0  0  0  0  0
  -20.5192  -22.0594  -23.6549 H   0  0  0  0  0  0
  -21.3788  -21.5237  -18.5425 H   0  0  0  0  0  0
  -21.3639  -23.2119  -18.9143 H   0  0  0  0  0  0
  -26.0003  -21.9080  -17.1290 H   0  0  0  0  0  0
  -28.0783  -23.0628  -17.3752 H   0  0  0  0  0  0
  -27.9180  -21.9742  -20.0232 H   0  0  0  0  0  0
  -31.1600  -20.6548  -21.2102 H   0  0  0  0  0  0
  -25.9841  -20.0419  -23.0667 H   0  0  0  0  0  0
  -26.7766  -18.5396  -23.0559 H   0  0  0  0  0  0
  -32.3139  -23.6825  -24.6673 H   0  0  0  0  0  0
  -31.8720  -25.1341  -23.7675 H   0  0  0  0  0  0
  -32.8331  -23.8631  -22.9930 H   0  0  0  0  0  0
  -23.8021  -20.3685  -18.0551 H   0  0  0  0  0  0
  -23.5031  -20.3071  -19.7803 H   0  0  0  0  0  0
  1  2  1  0  0  0
  1 37  1  0  0  0
  1 38  1  0  0  0
  1 39  1  0  0  0
  2 35  1  0  0  0
  2  3  1  0  0  0
  3  4  1  0  0  0
  3 31  2  0  0  0
  4  5  1  0  0  0
  5  6  1  0  0  0
  5 40  1  0  0  0
  5 41  1  0  0  0
  6 27  1  0  0  0
  6  7  2  0  0  0
  7  8  1  0  0  0
  7 28  1  0  0  0
  8 11  1  0  0  0
  8  9  1  0  0  0
  9 10  1  0  0  0
  9 26  1  0  0  0
  9 42  1  0  0  0
 10 11  1  0  0  0
 10 13  1  0  0  0
 10 43  1  0  0  0
 11 12  2  0  0  0
 13 14  1  0  0  0
 13 44  1  0  0  0
 14 15  1  0  0  0
 14 25  2  0  0  0
 15 16  1  0  0  0
 15 22  2  3  0  0
 16 21  1  0  0  0
 16 17  2  0  0  0
 17 18  1  0  0  0
 17 45  1  0  0  0
 18 19  1  0  0  0
 19 20  1  0  0  0
 19 21  2  0  0  0
 20 46  1  0  0  0
 20 47  1  0  0  0
 22 23  1  0  0  0
 23 24  1  0  0  0
 24 48  1  0  0  0
 24 49  1  0  0  0
 24 50  1  0  0  0
 26 27  1  0  0  0
 27 51  1  0  0  0
 27 52  1  0  0  0
 28 29  1  0  0  0
 28 30  2  0  0  0
 31 32  1  0  0  0
 32 33  1  0  0  0
 32 36  2  0  0  0
 33 34  2  0  0  0
 33 35  1  0  0  0
M  CHG  2  29  -1  35  -1
M  END
> <s_m_entry_id>
27487

> <s_m_entry_name>
data_maestro.22

> <s_m_Source_Path>
C:\Users\olshana1\Git\GramNeg-Accumulation\Gram Negative Permeation - OmpF

> <s_m_Source_File>
data_maestro.csv

> <i_m_Source_File_Index>
22

> <s_m_job_name>
glide-dock_Nicaido_neutral

> <s_i_glide_gridfile>
3POX-grid

> <i_i_glide_lignum>
28

> <i_i_glide_rotatable_bonds>
9

> <r_i_docking_score>
-4.86295855750099

> <r_i_glide_ligand_efficiency>
-0.135082182152805

> <r_i_glide_ligand_efficiency_sa>
-0.446031537557708

> <r_i_glide_ligand_efficiency_ln>
-1.06096617528955

> <r_i_glide_gscore>
-4.86295855750099

> <r_i_glide_lipo>
0

> <r_i_glide_hbond>
-0.949079602482015

> <r_i_glide_metal>
0

> <r_i_glide_rewards>
0.0666757397618319

> <r_i_glide_evdw>
-30.6959419250488

> <r_i_glide_ecoul>
-13.8150005340576

> <r_i_glide_erotb>
0.472124986767549

> <r_i_glide_esite>
-0.845632505187275

> <r_i_glide_emodel>
-73.5681433339138

> <r_i_glide_energy>
-44.5109424591064

> <r_i_glide_einternal>
8.94384002685547

> <i_i_glide_confnum>
162

> <i_i_glide_posenum>
78

> <r_i_glide_eff_state_penalty>
0

> <r_glide_res:A132_vdw>
-3.38669336583651

> <r_glide_res:A132_coul>
-72.5831027899898

> <r_glide_res:A132_hbond>
-0.100542177352322

> <r_glide_res:A132_dist>
2.11064771696168

> <r_glide_res:A132_Eint>
-76.0703383331787

> <r_glide_res:A117_vdw>
-1.48800286405285

> <r_glide_res:A117_coul>
32.2726085561435

> <r_glide_res:A117_hbond>
-0.32

> <r_glide_res:A117_dist>
1.91967411827667

> <r_glide_res:A117_Eint>
30.4646056920906

> <r_glide_res:A113_vdw>
-3.81132282356103

> <r_glide_res:A113_coul>
29.2573689960611

> <r_glide_res:A113_hbond>
0

> <r_glide_res:A113_dist>
2.68259683538504

> <r_glide_res:A113_Eint>
25.4460461725001

> <r_glide_res:A82_vdw>
-1.39022667514691

> <r_glide_res:A82_coul>
-63.387141253125

> <r_glide_res:A82_hbond>
-0.171543451746422

> <r_glide_res:A82_dist>
1.97013699925611

> <r_glide_res:A82_Eint>
-64.9489113800184

> <r_glide_res:A42_vdw>
-1.37135583030673

> <r_glide_res:A42_coul>
-49.214142227961

> <r_glide_res:A42_hbond>
0

> <r_glide_res:A42_dist>
3.746852878381

> <r_glide_res:A42_Eint>
-50.5854980582677

> <r_glide_res:A16_vdw>
-0.188844810858454

> <r_glide_res:A16_coul>
-30.586928614363

> <r_glide_res:A16_hbond>
0

> <r_glide_res:A16_dist>
4.72881647177737

> <r_glide_res:A16_Eint>
-30.7757734252214

> <s_m_source_file>
ligprep_Nicaido_neutral.maegz

> <i_m_source_file_index>
22

> <i_lp_mmshare_version>
58128

> <i_f3d_flags>
0

> <s_lp_Force_Field>
S-OPLS

> <r_lp_Energy>
109.903222

> <b_lp_Chiralities_Consistent>
1

> <s_lp_Variant>
Ceftriaxone-1

> <s_epik_input>
W09IXWMobjEpYyg9TyluYyhuMVtDSDNdKVNbQ0gyXUMoPUMyQyg9TylbT0hdKVtDSDJdU1tDQEhdKE4yMylbQ0BIXShDMz1PKVtOSF1DKD1PKS9DKD1OL09bQ0gzXSljNFtjSF1zYyhuNClbTkgyXQ==

> <s_epik_cmdline>
J2VwaWtfcHl0aG9uJywgJy1waHQnLCAnMC4wJywgJy1waCcsICc3LjQnLCAnLW50JywgJy1tYScsICc1MDAnLCAnLWltYWUnLCAnPGluZmlsZS5tYWU+JywgJy1vbWFlJywgJzxvdXRmaWxlLm1hZT4n

> <r_lp_tautomer_probability>
1

> <r_epik_Ionization_Penalty>
  0.0014

> <r_epik_Ionization_Penalty_Charging>
  0.0010

> <r_epik_Ionization_Penalty_Neutral>
  0.0004

> <r_epik_State_Penalty>
  0.0000

> <r_epik_Charging_Adjusted_Penalty>
0.000994184415634904

> <i_epik_Tot_Q>
-2

> <i_epik_Tot_abs_Q>
2

> <s_epik_Chemistry_Notes>
This compound has an imine and may undergo hydrolysis. This compound contains an acetal/aminal-like group ( X-CH(R)-Y where X, Y are N, S, or O) that may be acid/base labile, releasing an aldehyde.

> <s_m_subgroup_title>
glide-dock_Nicaido_neutral_pv1

> <s_m_subgroupid>
glide-dock_Nicaido_neutral_pv1

> <b_m_subgroup_collapsed>
0

$$$$
LY097964
                    3D
 Schrodinger Suite 2022-2.
 40 42  0  0  1  0            999 V2000
  -32.3078  -25.2940  -23.2119 C   0  0  0  0  0  0
  -31.1702  -24.5534  -22.8033 O   0  0  0  0  0  0
  -31.5934  -23.2327  -22.5991 N   0  0  0  0  0  0
  -30.6647  -22.3955  -22.3374 C   0  0  0  0  0  0
  -31.0183  -20.9580  -22.2172 C   0  0  0  0  0  0
  -32.1802  -20.5336  -21.6125 C   0  0  0  0  0  0
  -32.3695  -18.8014  -21.6954 S   0  0  0  0  0  0
  -30.8742  -18.7307  -22.6100 C   0  0  0  0  0  0
  -30.3690  -17.5496  -23.1017 N   0  0  0  0  0  0
  -30.2905  -19.9099  -22.7917 N   0  0  0  0  0  0
  -29.1719  -22.7015  -22.2095 C   0  0  0  0  0  0
  -28.5322  -21.9291  -21.3024 N   0  0  0  0  0  0
  -27.0818  -21.7543  -21.1228 C   0  0  1  0  0  0
  -26.6966  -21.6081  -19.6382 C   0  0  1  0  0  0
  -25.8083  -22.7451  -19.8021 N   0  0  0  0  0  0
  -26.2244  -23.0419  -21.0882 C   0  0  0  0  0  0
  -25.9758  -23.9496  -21.8494 O   0  0  0  0  0  0
  -25.0238  -23.2511  -18.7388 C   0  0  0  0  0  0
  -24.4825  -24.7216  -18.9094 C   0  0  0  0  0  0
  -24.7683  -25.5494  -18.0136 O   0  5  0  0  0  0
  -23.8591  -24.9679  -19.9656 O   0  0  0  0  0  0
  -24.6956  -22.4710  -17.6701 C   0  0  0  0  0  0
  -25.1428  -21.0170  -17.5160 C   0  0  0  0  0  0
  -25.6827  -20.2299  -19.0521 S   0  0  0  0  0  0
  -23.8690  -22.9358  -16.4758 C   0  0  0  0  0  0
  -28.6215  -23.5498  -22.9190 O   0  0  0  0  0  0
  -32.0186  -26.3136  -23.4616 H   0  0  0  0  0  0
  -33.0539  -25.3393  -22.4162 H   0  0  0  0  0  0
  -32.7711  -24.8598  -24.0998 H   0  0  0  0  0  0
  -32.9238  -21.1262  -21.0988 H   0  0  0  0  0  0
  -29.3657  -17.4885  -23.2180 H   0  0  0  0  0  0
  -30.8194  -16.6902  -22.7878 H   0  0  0  0  0  0
  -29.1068  -21.2958  -20.7584 H   0  0  0  0  0  0
  -26.6669  -20.9526  -21.7348 H   0  0  0  0  0  0
  -27.5074  -21.8353  -18.9415 H   0  0  0  0  0  0
  -25.9686  -20.9862  -16.8133 H   0  0  0  0  0  0
  -24.3382  -20.4133  -17.0954 H   0  0  0  0  0  0
  -24.4983  -22.9647  -15.5856 H   0  0  0  0  0  0
  -23.4161  -23.9166  -16.6003 H   0  0  0  0  0  0
  -23.0560  -22.2350  -16.2867 H   0  0  0  0  0  0
  1  2  1  0  0  0
  1 27  1  0  0  0
  1 28  1  0  0  0
  1 29  1  0  0  0
  2  3  1  0  0  0
  3  4  2  3  0  0
  4  5  1  0  0  0
  4 11  1  0  0  0
  5 10  1  0  0  0
  5  6  2  0  0  0
  6  7  1  0  0  0
  6 30  1  0  0  0
  7  8  1  0  0  0
  8  9  1  0  0  0
  8 10  2  0  0  0
  9 31  1  0  0  0
  9 32  1  0  0  0
 11 12  1  0  0  0
 11 26  2  0  0  0
 12 13  1  0  0  0
 12 33  1  0  0  0
 13 16  1  0  0  0
 13 14  1  0  0  0
 13 34  1  0  0  0
 14 24  1  0  0  0
 14 15  1  0  0  0
 14 35  1  0  0  0
 15 16  1  0  0  0
 15 18  1  0  0  0
 16 17  2  0  0  0
 18 19  1  0  0  0
 18 22  2  0  0  0
 19 20  1  0  0  0
 19 21  2  0  0  0
 22 23  1  0  0  0
 22 25  1  0  0  0
 23 24  1  0  0  0
 23 36  1  0  0  0
 23 37  1  0  0  0
 25 38  1  0  0  0
 25 39  1  0  0  0
 25 40  1  0  0  0
M  CHG  1  20  -1
M  END
> <s_m_entry_id>
27488

> <s_m_entry_name>
data_maestro.7

> <s_m_Source_Path>
C:\Users\olshana1\Git\GramNeg-Accumulation\Gram Negative Permeation - OmpF

> <s_m_Source_File>
data_maestro.csv

> <i_m_Source_File_Index>
7

> <s_m_job_name>
glide-dock_Nicaido_neutral

> <s_i_glide_gridfile>
3POX-grid

> <i_i_glide_lignum>
10

> <i_i_glide_rotatable_bonds>
6

> <r_i_docking_score>
-4.86147706804634

> <r_i_glide_ligand_efficiency>
-0.186979887232552

> <r_i_glide_ligand_efficiency_sa>
-0.553927180196105

> <r_i_glide_ligand_efficiency_ln>
-1.14170193762333

> <r_i_glide_gscore>
-4.86147706804634

> <r_i_glide_lipo>
0

> <r_i_glide_hbond>
-0.860333653974697

> <r_i_glide_metal>
0

> <r_i_glide_rewards>
-0.698523245278737

> <r_i_glide_evdw>
-27.4405040740967

> <r_i_glide_ecoul>
-12.5934171676636

> <r_i_glide_erotb>
0.622478626066327

> <r_i_glide_esite>
-0.664061016004862

> <r_i_glide_emodel>
-58.0403456310304

> <r_i_glide_energy>
-40.0339212417603

> <r_i_glide_einternal>
10.6286468505859

> <i_i_glide_confnum>
9

> <i_i_glide_posenum>
109

> <r_i_glide_eff_state_penalty>
0

> <r_glide_res:A132_vdw>
-1.80045179228422

> <r_glide_res:A132_coul>
-45.9806892123914

> <r_glide_res:A132_hbond>
-0.141852244650034

> <r_glide_res:A132_dist>
2.00689928997769

> <r_glide_res:A132_Eint>
-47.9229932493257

> <r_glide_res:A117_vdw>
-1.8064504550365

> <r_glide_res:A117_coul>
15.9834601522272

> <r_glide_res:A117_hbond>
-0.142532249118177

> <r_glide_res:A117_dist>
2.32183468860228

> <r_glide_res:A117_Eint>
14.0344774480725

> <r_glide_res:A113_vdw>
-4.94967501154269

> <r_glide_res:A113_coul>
10.1771044527203

> <r_glide_res:A113_hbond>
0

> <r_glide_res:A113_dist>
3.09730923091453

> <r_glide_res:A113_Eint>
5.22742944117759

> <r_glide_res:A82_vdw>
-2.04735789574149

> <r_glide_res:A82_coul>
-38.9959947255515

> <r_glide_res:A82_hbond>
-0.0959491602064856

> <r_glide_res:A82_dist>
2.15235024889918

> <r_glide_res:A82_Eint>
-41.1393017814995

> <r_glide_res:A42_vdw>
-0.786177825575266

> <r_glide_res:A42_coul>
-25.0761151651023

> <r_glide_res:A42_hbond>
0

> <r_glide_res:A42_dist>
3.65239441495456

> <r_glide_res:A42_Eint>
-25.8622929906776

> <r_glide_res:A16_vdw>
-0.201150801099837

> <r_glide_res:A16_coul>
-16.1497308120644

> <r_glide_res:A16_hbond>
0

> <r_glide_res:A16_dist>
5.47266853072729

> <r_glide_res:A16_Eint>
-16.3508816131642

> <s_m_source_file>
ligprep_Nicaido_neutral.maegz

> <i_m_source_file_index>
7

> <i_lp_mmshare_version>
58128

> <i_f3d_flags>
0

> <s_lp_Force_Field>
S-OPLS

> <r_lp_Energy>
53.916069

> <b_lp_Chiralities_Consistent>
1

> <s_lp_Variant>
LY097964-2

> <s_epik_input>
W05IMl1jKG4xKXNbY0hdYzEvQyg9TlxPW0NIM10pQyg9TylbTkhdW0NAQEhdMkMoPU8pTihbQ0BIXTIzKUMoQyg9TylbT0hdKT1DKFtDSDJdUzMpW0NIM10=

> <s_epik_cmdline>
J2VwaWtfcHl0aG9uJywgJy1waHQnLCAnMC4wJywgJy1waCcsICc3LjQnLCAnLW50JywgJy1tYScsICc1MDAnLCAnLWltYWUnLCAnPGluZmlsZS5tYWU+JywgJy1vbWFlJywgJzxvdXRmaWxlLm1hZT4n

> <r_lp_tautomer_probability>
1

> <r_epik_Ionization_Penalty>
  0.0005

> <r_epik_Ionization_Penalty_Charging>
  0.0000

> <r_epik_Ionization_Penalty_Neutral>
  0.0005

> <r_epik_State_Penalty>
  0.0000

> <r_epik_Charging_Adjusted_Penalty>
1.64985111359435e-05

> <i_epik_Tot_Q>
-1

> <i_epik_Tot_abs_Q>
1

> <s_epik_Chemistry_Notes>
This compound has an imine and may undergo hydrolysis. This compound contains an acetal/aminal-like group ( X-CH(R)-Y where X, Y are N, S, or O) that may be acid/base labile, releasing an aldehyde.

> <s_m_subgroup_title>
glide-dock_Nicaido_neutral_pv1

> <s_m_subgroupid>
glide-dock_Nicaido_neutral_pv1

> <b_m_subgroup_collapsed>
0

$$$$
Nocardicin B
                    3D
 Schrodinger Suite 2022-2.
 59 61  0  0  1  0            999 V2000
  -28.5051  -22.6916  -24.8135 O   0  0  0  0  0  0
  -29.2166  -22.3383  -23.8958 C   0  0  0  0  0  0
  -30.7093  -22.0471  -23.7423 C   0  0  2  0  0  0
  -30.4056  -21.8875  -22.2528 C   0  0  0  0  0  0
  -28.9804  -22.0762  -22.5600 N   0  0  0  0  0  0
  -27.8254  -22.1143  -21.6543 C   0  0  2  0  0  0
  -26.8514  -21.0002  -21.9024 C   0  0  0  0  0  0
  -26.3448  -20.2608  -20.8029 C   0  0  0  0  0  0
  -25.4450  -19.1903  -20.9780 C   0  0  0  0  0  0
  -25.0321  -18.8251  -22.2714 C   0  0  0  0  0  0
  -25.5101  -19.5477  -23.3803 C   0  0  0  0  0  0
  -26.3988  -20.6213  -23.1920 C   0  0  0  0  0  0
  -24.1962  -17.7653  -22.4607 O   0  0  0  0  0  0
  -27.0228  -23.4306  -21.7028 C   0  0  0  0  0  0
  -26.7695  -23.9495  -22.8131 O   0  5  0  0  0  0
  -26.7085  -23.9581  -20.6146 O   0  0  0  0  0  0
  -31.5104  -23.2270  -24.0449 N   0  0  0  0  0  0
  -31.8036  -23.6330  -25.2914 C   0  0  0  0  0  0
  -32.4555  -25.0004  -25.3353 C   0  0  0  0  0  0
  -33.1690  -25.2502  -26.6058 C   0  0  0  0  0  0
  -34.4674  -24.7317  -26.7916 C   0  0  0  0  0  0
  -35.1571  -24.9431  -27.9982 C   0  0  0  0  0  0
  -34.5572  -25.6798  -29.0473 C   0  0  0  0  0  0
  -33.2523  -26.1825  -28.8626 C   0  0  0  0  0  0
  -32.5624  -25.9723  -27.6541 C   0  0  0  0  0  0
  -35.1750  -25.9491  -30.2458 O   0  0  0  0  0  0
  -36.5762  -25.7253  -30.3330 C   0  0  0  0  0  0
  -37.0826  -26.4158  -31.6068 C   0  0  0  0  0  0
  -38.6118  -26.3545  -31.8188 C   0  0  2  0  0  0
  -39.4439  -27.1634  -30.8064 C   0  0  0  0  0  0
  -40.6819  -27.0098  -30.8711 O   0  5  0  0  0  0
  -38.8754  -27.9494  -30.0160 O   0  0  0  0  0  0
  -38.9608  -26.8602  -33.1538 N   0  3  0  0  0  0
  -32.3693  -25.8229  -24.3610 N   0  0  0  0  0  0
  -33.0237  -27.0624  -24.6662 O   0  0  0  0  0  0
  -31.5315  -22.9919  -26.3123 O   0  0  0  0  0  0
  -31.0535  -21.1232  -24.2082 H   0  0  0  0  0  0
  -30.6389  -20.8949  -21.8608 H   0  0  0  0  0  0
  -30.8261  -22.6657  -21.6114 H   0  0  0  0  0  0
  -28.2364  -22.0238  -20.6470 H   0  0  0  0  0  0
  -26.6569  -20.5144  -19.7984 H   0  0  0  0  0  0
  -25.0871  -18.6380  -20.1205 H   0  0  0  0  0  0
  -25.2017  -19.2713  -24.3785 H   0  0  0  0  0  0
  -26.7308  -21.1530  -24.0679 H   0  0  0  0  0  0
  -24.1983  -17.4905  -23.3704 H   0  0  0  0  0  0
  -31.7911  -23.8182  -23.2753 H   0  0  0  0  0  0
  -34.9439  -24.1654  -26.0035 H   0  0  0  0  0  0
  -36.1490  -24.5303  -28.0961 H   0  0  0  0  0  0
  -32.7847  -26.7467  -29.6543 H   0  0  0  0  0  0
  -31.5713  -26.3851  -27.5316 H   0  0  0  0  0  0
  -36.7886  -24.6571  -30.3728 H   0  0  0  0  0  0
  -37.0768  -26.1350  -29.4552 H   0  0  0  0  0  0
  -36.7684  -27.4593  -31.5928 H   0  0  0  0  0  0
  -36.5817  -25.9502  -32.4591 H   0  0  0  0  0  0
  -38.9311  -25.3130  -31.7700 H   0  0  0  0  0  0
  -39.9599  -26.7576  -33.2701 H   0  0  0  0  0  0
  -38.4688  -26.3481  -33.8761 H   0  0  0  0  0  0
  -33.1127  -27.0412  -25.6104 H   0  0  0  0  0  0
  -38.7197  -27.8394  -33.1922 H   0  0  0  0  0  0
  1  2  2  0  0  0
  2  5  1  0  0  0
  2  3  1  0  0  0
  3  4  1  0  0  0
  3 17  1  0  0  0
  3 37  1  0  0  0
  4  5  1  0  0  0
  4 38  1  0  0  0
  4 39  1  0  0  0
  5  6  1  0  0  0
  6  7  1  0  0  0
  6 14  1  0  0  0
  6 40  1  0  0  0
  7 12  1  0  0  0
  7  8  2  0  0  0
  8  9  1  0  0  0
  8 41  1  0  0  0
  9 10  2  0  0  0
  9 42  1  0  0  0
 10 11  1  0  0  0
 10 13  1  0  0  0
 11 12  2  0  0  0
 11 43  1  0  0  0
 12 44  1  0  0  0
 13 45  1  0  0  0
 14 15  1  0  0  0
 14 16  2  0  0  0
 17 18  1  0  0  0
 17 46  1  0  0  0
 18 19  1  0  0  0
 18 36  2  0  0  0
 19 20  1  0  0  0
 19 34  2  3  0  0
 20 25  1  0  0  0
 20 21  2  0  0  0
 21 22  1  0  0  0
 21 47  1  0  0  0
 22 23  2  0  0  0
 22 48  1  0  0  0
 23 24  1  0  0  0
 23 26  1  0  0  0
 24 25  2  0  0  0
 24 49  1  0  0  0
 25 50  1  0  0  0
 26 27  1  0  0  0
 27 28  1  0  0  0
 27 51  1  0  0  0
 27 52  1  0  0  0
 28 29  1  0  0  0
 28 53  1  0  0  0
 28 54  1  0  0  0
 29 30  1  0  0  0
 29 33  1  0  0  0
 29 55  1  0  0  0
 30 31  1  0  0  0
 30 32  2  0  0  0
 33 56  1  0  0  0
 33 57  1  0  0  0
 33 59  1  0  0  0
 34 35  1  0  0  0
 35 58  1  0  0  0
M  CHG  3  15  -1  31  -1  33   1
M  END
> <s_m_entry_id>
27489

> <s_m_entry_name>
data_maestro.29

> <s_m_Source_Path>
C:\Users\olshana1\Git\GramNeg-Accumulation\Gram Negative Permeation - OmpF

> <s_m_Source_File>
data_maestro.csv

> <i_m_Source_File_Index>
29

> <s_m_job_name>
glide-dock_Nicaido_neutral

> <s_i_glide_gridfile>
3POX-grid

> <i_i_glide_lignum>
36

> <i_i_glide_rotatable_bonds>
14

> <r_i_docking_score>
-4.86035649685692

> <r_i_glide_ligand_efficiency>
-0.13500990269047

> <r_i_glide_ligand_efficiency_sa>
-0.445792876031772

> <r_i_glide_ligand_efficiency_ln>
-1.06039847595657

> <r_i_glide_gscore>
-4.86035649685692

> <r_i_glide_lipo>
-0.0598255944950828

> <r_i_glide_hbond>
-1.23940840354717

> <r_i_glide_metal>
0

> <r_i_glide_rewards>
0.0043079404926958

> <r_i_glide_evdw>
-27.0657291412354

> <r_i_glide_ecoul>
-16.7981834411621

> <r_i_glide_erotb>
0.900147327125679

> <r_i_glide_esite>
-0.592563793196963

> <r_i_glide_emodel>
-74.4594941184453

> <r_i_glide_energy>
-43.8639125823975

> <r_i_glide_einternal>
3.98705983161926

> <i_i_glide_confnum>
701

> <i_i_glide_posenum>
244

> <r_i_glide_eff_state_penalty>
0

> <r_glide_res:A132_vdw>
-1.0501239470348

> <r_glide_res:A132_coul>
-49.8296266207961

> <r_glide_res:A132_hbond>
-0.270912551027868

> <r_glide_res:A132_dist>
1.94234641057104

> <r_glide_res:A132_Eint>
-51.1506631188588

> <r_glide_res:A117_vdw>
-2.9924417624549

> <r_glide_res:A117_coul>
15.7060364393495

> <r_glide_res:A117_hbond>
-0.140517777613944

> <r_glide_res:A117_dist>
2.14870555596514

> <r_glide_res:A117_Eint>
12.5730768992807

> <r_glide_res:A113_vdw>
-1.43706442950271

> <r_glide_res:A113_coul>
21.997487115126

> <r_glide_res:A113_hbond>
0

> <r_glide_res:A113_dist>
3.37032553871085

> <r_glide_res:A113_Eint>
20.5604226856233

> <r_glide_res:A82_vdw>
1.70674676673945

> <r_glide_res:A82_coul>
-50.4369911223496

> <r_glide_res:A82_hbond>
-0.2

> <r_glide_res:A82_dist>
1.60988772500821

> <r_glide_res:A82_Eint>
-48.9302443556101

> <r_glide_res:A42_vdw>
-2.65408885794468

> <r_glide_res:A42_coul>
-37.7890160291171

> <r_glide_res:A42_hbond>
-0.258099005463372

> <r_glide_res:A42_dist>
2.08769511799019

> <r_glide_res:A42_Eint>
-40.7012038925251

> <r_glide_res:A16_vdw>
-1.90457801827598

> <r_glide_res:A16_coul>
-24.7006492987867

> <r_glide_res:A16_hbond>
0

> <r_glide_res:A16_dist>
2.85548179554595

> <r_glide_res:A16_Eint>
-26.6052273170627

> <s_m_source_file>
ligprep_Nicaido_neutral.maegz

> <i_m_source_file_index>
29

> <i_lp_mmshare_version>
58128

> <i_f3d_flags>
0

> <s_lp_Force_Field>
S-OPLS

> <r_lp_Energy>
60.848016

> <b_lp_Chiralities_Consistent>
1

> <s_lp_Variant>
Nocardicin B-1

> <s_epik_input>
W2NIXTFbY0hdYyhbT0hdKVtjSF1bY0hdYzFbQ0BIXShDKD1PKVtPSF0pTjJbQ0gyXVtDQEBIXShDMj1PKVtOSF1DKD1PKS9DKD1OL1tPSF0pYzNbY0hdW2NIXWMoW2NIXVtjSF0zKU9bQ0gyXVtDSDJdW0NAQEhdKFtOSDJdKUMoPU8pW09IXQ==

> <s_epik_cmdline>
J2VwaWtfcHl0aG9uJywgJy1waHQnLCAnMC4wJywgJy1waCcsICc3LjQnLCAnLW50JywgJy1tYScsICc1MDAnLCAnLWltYWUnLCAnPGluZmlsZS5tYWU+JywgJy1vbWFlJywgJzxvdXRmaWxlLm1hZT4n

> <r_lp_tautomer_probability>
1

> <r_epik_Ionization_Penalty>
  0.0116

> <r_epik_Ionization_Penalty_Charging>
  0.0086

> <r_epik_Ionization_Penalty_Neutral>
  0.0030

> <r_epik_State_Penalty>
  0.0000

> <r_epik_Charging_Adjusted_Penalty>
0.0085560600321308

> <i_epik_Tot_Q>
-1

> <i_epik_Tot_abs_Q>
3

> <s_epik_Chemistry_Notes>
This compound has an imine and may undergo hydrolysis.

> <s_m_subgroup_title>
glide-dock_Nicaido_neutral_pv1

> <s_m_subgroupid>
glide-dock_Nicaido_neutral_pv1

> <b_m_subgroup_collapsed>
0

$$$$
Cefacetrile
                    3D
 Schrodinger Suite 2022-2.
 35 36  0  0  1  0            999 V2000
  -27.9689  -22.9300  -17.6134 C   0  0  0  0  0  0
  -27.5483  -22.9225  -19.0735 C   0  0  0  0  0  0
  -27.1536  -21.7058  -19.4802 O   0  0  0  0  0  0
  -26.8354  -21.4627  -20.8430 C   0  0  0  0  0  0
  -28.0556  -20.9840  -21.6232 C   0  0  0  0  0  0
  -28.5280  -21.6070  -22.7347 C   0  0  0  0  0  0
  -29.6487  -21.1394  -23.4412 N   0  0  0  0  0  0
  -30.6590  -20.3027  -22.8221 C   0  0  2  0  0  0
  -31.3754  -20.2662  -24.1863 C   0  0  2  0  0  0
  -30.3057  -21.2912  -24.6520 C   0  0  0  0  0  0
  -30.0839  -21.9725  -25.6342 O   0  0  0  0  0  0
  -31.2754  -18.9504  -24.8173 N   0  0  0  0  0  0
  -31.6904  -18.6664  -26.0578 C   0  0  0  0  0  0
  -31.5525  -17.2106  -26.5049 C   0  0  0  0  0  0
  -32.2334  -16.9152  -27.7768 C   0  0  0  0  0  0
  -32.7686  -16.6827  -28.7782 N   0  0  0  0  0  0
  -32.1549  -19.5217  -26.8133 O   0  0  0  0  0  0
  -29.8457  -18.8486  -22.0993 S   0  0  0  0  0  0
  -28.6746  -19.7207  -21.0214 C   0  0  0  0  0  0
  -27.8088  -22.8374  -23.3643 C   0  0  0  0  0  0
  -27.9691  -23.9493  -22.8098 O   0  5  0  0  0  0
  -27.1686  -22.6263  -24.4133 O   0  0  0  0  0  0
  -27.5703  -23.9498  -19.7553 O   0  0  0  0  0  0
  -27.1109  -22.7471  -16.9665 H   0  0  0  0  0  0
  -28.7107  -22.1518  -17.4314 H   0  0  0  0  0  0
  -28.4064  -23.8909  -17.3434 H   0  0  0  0  0  0
  -26.3624  -22.3356  -21.2905 H   0  0  0  0  0  0
  -26.0891  -20.6689  -20.8736 H   0  0  0  0  0  0
  -31.2139  -20.8596  -22.0631 H   0  0  0  0  0  0
  -32.3936  -20.6527  -24.1266 H   0  0  0  0  0  0
  -30.8745  -18.2136  -24.2516 H   0  0  0  0  0  0
  -30.4970  -16.9668  -26.6237 H   0  0  0  0  0  0
  -31.9690  -16.5512  -25.7427 H   0  0  0  0  0  0
  -29.1689  -19.9916  -20.0906 H   0  0  0  0  0  0
  -27.8858  -19.0146  -20.7583 H   0  0  0  0  0  0
  1  2  1  0  0  0
  1 24  1  0  0  0
  1 25  1  0  0  0
  1 26  1  0  0  0
  2  3  1  0  0  0
  2 23  2  0  0  0
  3  4  1  0  0  0
  4  5  1  0  0  0
  4 27  1  0  0  0
  4 28  1  0  0  0
  5 19  1  0  0  0
  5  6  2  0  0  0
  6  7  1  0  0  0
  6 20  1  0  0  0
  7 10  1  0  0  0
  7  8  1  0  0  0
  8  9  1  0  0  0
  8 18  1  0  0  0
  8 29  1  0  0  0
  9 10  1  0  0  0
  9 12  1  0  0  0
  9 30  1  0  0  0
 10 11  2  0  0  0
 12 13  1  0  0  0
 12 31  1  0  0  0
 13 14  1  0  0  0
 13 17  2  0  0  0
 14 15  1  0  0  0
 14 32  1  0  0  0
 14 33  1  0  0  0
 15 16  3  0  0  0
 18 19  1  0  0  0
 19 34  1  0  0  0
 19 35  1  0  0  0
 20 21  1  0  0  0
 20 22  2  0  0  0
M  CHG  1  21  -1
M  END
> <s_m_entry_id>
27490

> <s_m_entry_name>
data_maestro.1

> <s_m_Source_Path>
C:\Users\olshana1\Git\GramNeg-Accumulation\Gram Negative Permeation - OmpF

> <s_m_Source_File>
data_maestro.csv

> <i_m_Source_File_Index>
1

> <s_m_job_name>
glide-dock_Nicaido_neutral

> <s_i_glide_gridfile>
3POX-grid

> <i_i_glide_lignum>
1

> <i_i_glide_rotatable_bonds>
7

> <r_i_docking_score>
-4.8565547094976

> <r_i_glide_ligand_efficiency>
-0.211154552586852

> <r_i_glide_ligand_efficiency_sa>
-0.600495459119463

> <r_i_glide_ligand_efficiency_ln>
-1.17435896555992

> <r_i_glide_gscore>
-4.8565547094976

> <r_i_glide_lipo>
0

> <r_i_glide_hbond>
-0.681492274132638

> <r_i_glide_metal>
0

> <r_i_glide_rewards>
-1.10158606758088

> <r_i_glide_evdw>
-23.3790473937988

> <r_i_glide_ecoul>
-14.2383804321289

> <r_i_glide_erotb>
0.660867222788296

> <r_i_glide_esite>
-0.429634156063103

> <r_i_glide_emodel>
-61.4207598752525

> <r_i_glide_energy>
-37.6174278259277

> <r_i_glide_einternal>
1.60262703895569

> <i_i_glide_confnum>
4

> <i_i_glide_posenum>
182

> <r_i_glide_eff_state_penalty>
0

> <r_glide_res:A132_vdw>
-1.53170069831456

> <r_glide_res:A132_coul>
-37.8534368885391

> <r_glide_res:A132_hbond>
-0.16

> <r_glide_res:A132_dist>
2.01118399737084

> <r_glide_res:A132_Eint>
-39.5451375868536

> <r_glide_res:A117_vdw>
-2.75377374162146

> <r_glide_res:A117_coul>
21.4113150434146

> <r_glide_res:A117_hbond>
0

> <r_glide_res:A117_dist>
2.96059521270411

> <r_glide_res:A117_Eint>
18.6575413017931

> <r_glide_res:A113_vdw>
-2.99295909125147

> <r_glide_res:A113_coul>
17.9149057171665

> <r_glide_res:A113_hbond>
0

> <r_glide_res:A113_dist>
2.24052626296581

> <r_glide_res:A113_Eint>
14.9219466259151

> <r_glide_res:A82_vdw>
0.803851844011211

> <r_glide_res:A82_coul>
-49.7890957864031

> <r_glide_res:A82_hbond>
-0.228913243544269

> <r_glide_res:A82_dist>
1.7397650696993

> <r_glide_res:A82_Eint>
-49.2141571859361

> <r_glide_res:A42_vdw>
0.0946807282624071

> <r_glide_res:A42_coul>
-49.5754334734994

> <r_glide_res:A42_hbond>
-0.292579030588369

> <r_glide_res:A42_dist>
1.80893301839668

> <r_glide_res:A42_Eint>
-49.7733317758253

> <r_glide_res:A16_vdw>
-1.19603847484876

> <r_glide_res:A16_coul>
-36.6845779866439

> <r_glide_res:A16_hbond>
0

> <r_glide_res:A16_dist>
2.59018605202677

> <r_glide_res:A16_Eint>
-37.8806164614926

> <s_m_source_file>
ligprep_Nicaido_neutral.maegz

> <i_m_source_file_index>
1

> <i_lp_mmshare_version>
58128

> <i_f3d_flags>
0

> <s_lp_Force_Field>
S-OPLS

> <r_lp_Energy>
24.277434

> <b_lp_Chiralities_Consistent>
1

> <s_lp_Variant>
Cefacetrile-1

> <s_epik_input>
W0NIM11DKD1PKU9bQ0gyXUMoPUMxQyg9TylbT0hdKVtDSDJdU1tDQEhdKE4xMilbQ0BIXShDMj1PKVtOSF1DKD1PKVtDSDJdQyNO

> <s_epik_cmdline>
J2VwaWtfcHl0aG9uJywgJy1waHQnLCAnMC4wJywgJy1waCcsICc3LjQnLCAnLW50JywgJy1tYScsICc1MDAnLCAnLWltYWUnLCAnPGluZmlsZS5tYWU+JywgJy1vbWFlJywgJzxvdXRmaWxlLm1hZT4n

> <r_lp_tautomer_probability>
1

> <r_epik_Ionization_Penalty>
  0.0000

> <r_epik_Ionization_Penalty_Charging>
  0.0000

> <r_epik_Ionization_Penalty_Neutral>
  0.0000

> <r_epik_State_Penalty>
  0.0000

> <r_epik_Charging_Adjusted_Penalty>
5.96156609429709e-06

> <i_epik_Tot_Q>
-1

> <i_epik_Tot_abs_Q>
1

> <s_epik_Chemistry_Notes>
This compound has an ester and may undergo hydrolysis at high or low pH. This compound contains an acetal/aminal-like group ( X-CH(R)-Y where X, Y are N, S, or O) that may be acid/base labile, releasing an aldehyde.

> <s_m_subgroup_title>
glide-dock_Nicaido_neutral_pv1

> <s_m_subgroupid>
glide-dock_Nicaido_neutral_pv1

> <b_m_subgroup_collapsed>
0

$$$$
Cefuroxime
                    3D
 Schrodinger Suite 2022-2.
 44 46  0  0  1  0            999 V2000
  -25.2194  -20.5844  -17.7979 C   0  0  0  0  0  0
  -25.8011  -21.4527  -18.7534 O   0  0  0  0  0  0
  -26.3175  -22.5651  -18.0705 N   0  0  0  0  0  0
  -27.2835  -23.1288  -18.6801 C   0  0  0  0  0  0
  -27.9351  -24.3094  -18.1328 C   0  0  0  0  0  0
  -29.1687  -24.5821  -17.6135 C   0  0  0  0  0  0
  -29.1654  -25.9499  -17.2303 C   0  0  0  0  0  0
  -27.9491  -26.4367  -17.6134 C   0  0  0  0  0  0
  -27.1859  -25.4511  -18.1630 O   0  0  0  0  0  0
  -27.8372  -22.7439  -20.0322 C   0  0  0  0  0  0
  -29.1689  -22.5426  -20.0052 N   0  0  0  0  0  0
  -30.1258  -22.2932  -21.0844 C   0  0  1  0  0  0
  -29.9670  -20.9062  -21.7173 C   0  0  1  0  0  0
  -29.8520  -21.5814  -22.9970 N   0  0  0  0  0  0
  -29.7499  -22.8609  -22.4681 C   0  0  0  0  0  0
  -29.4504  -23.9469  -22.9226 O   0  0  0  0  0  0
  -29.6620  -20.8533  -24.1836 C   0  0  0  0  0  0
  -29.0100  -21.6343  -25.3710 C   0  0  0  0  0  0
  -28.0147  -22.3481  -25.1117 O   0  5  0  0  0  0
  -29.5717  -21.5497  -26.4855 O   0  0  0  0  0  0
  -29.9736  -19.5316  -24.2655 C   0  0  0  0  0  0
  -30.6159  -18.7186  -23.1448 C   0  0  0  0  0  0
  -31.3526  -19.7394  -21.8541 S   0  0  0  0  0  0
  -29.6452  -18.6762  -25.4653 C   0  0  0  0  0  0
  -30.7302  -18.6520  -26.3881 O   0  0  0  0  0  0
  -30.6846  -17.9494  -27.5422 C   0  0  0  0  0  0
  -29.5690  -17.1499  -27.6132 N   0  0  0  0  0  0
  -31.5360  -18.0512  -28.4213 O   0  0  0  0  0  0
  -27.1264  -22.7086  -21.0374 O   0  0  0  0  0  0
  -24.7846  -19.7234  -18.3053 H   0  0  0  0  0  0
  -25.9688  -20.2095  -17.1003 H   0  0  0  0  0  0
  -24.4289  -21.0778  -17.2317 H   0  0  0  0  0  0
  -29.9684  -23.8682  -17.4896 H   0  0  0  0  0  0
  -29.9628  -26.5061  -16.7590 H   0  0  0  0  0  0
  -27.4712  -27.4016  -17.5535 H   0  0  0  0  0  0
  -29.6232  -22.4984  -19.0947 H   0  0  0  0  0  0
  -31.1574  -22.4857  -20.7878 H   0  0  0  0  0  0
  -29.0376  -20.3960  -21.4526 H   0  0  0  0  0  0
  -29.8579  -18.0739  -22.6973 H   0  0  0  0  0  0
  -31.3922  -18.0692  -23.5508 H   0  0  0  0  0  0
  -29.4155  -17.6680  -25.1167 H   0  0  0  0  0  0
  -28.7480  -19.0506  -25.9597 H   0  0  0  0  0  0
  -28.9523  -17.0860  -26.8145 H   0  0  0  0  0  0
  -29.4214  -16.5526  -28.4179 H   0  0  0  0  0  0
  1  2  1  0  0  0
  1 30  1  0  0  0
  1 31  1  0  0  0
  1 32  1  0  0  0
  2  3  1  0  0  0
  3  4  2  3  0  0
  4  5  1  0  0  0
  4 10  1  0  0  0
  5  9  1  0  0  0
  5  6  2  0  0  0
  6  7  1  0  0  0
  6 33  1  0  0  0
  7  8  2  0  0  0
  7 34  1  0  0  0
  8  9  1  0  0  0
  8 35  1  0  0  0
 10 11  1  0  0  0
 10 29  2  0  0  0
 11 12  1  0  0  0
 11 36  1  0  0  0
 12 15  1  0  0  0
 12 13  1  0  0  0
 12 37  1  0  0  0
 13 23  1  0  0  0
 13 14  1  0  0  0
 13 38  1  0  0  0
 14 15  1  0  0  0
 14 17  1  0  0  0
 15 16  2  0  0  0
 17 18  1  0  0  0
 17 21  2  0  0  0
 18 19  1  0  0  0
 18 20  2  0  0  0
 21 22  1  0  0  0
 21 24  1  0  0  0
 22 23  1  0  0  0
 22 39  1  0  0  0
 22 40  1  0  0  0
 24 25  1  0  0  0
 24 41  1  0  0  0
 24 42  1  0  0  0
 25 26  1  0  0  0
 26 27  1  0  0  0
 26 28  2  0  0  0
 27 43  1  0  0  0
 27 44  1  0  0  0
M  CHG  1  19  -1
M  END
> <s_m_entry_id>
27491

> <s_m_entry_name>
data_maestro.10

> <s_m_Source_Path>
C:\Users\olshana1\Git\GramNeg-Accumulation\Gram Negative Permeation - OmpF

> <s_m_Source_File>
data_maestro.csv

> <i_m_Source_File_Index>
10

> <s_m_job_name>
glide-dock_Nicaido_neutral

> <s_i_glide_gridfile>
3POX-grid

> <i_i_glide_lignum>
14

> <i_i_glide_rotatable_bonds>
9

> <r_i_docking_score>
-4.85586551151536

> <r_i_glide_ligand_efficiency>
-0.167443638328116

> <r_i_glide_ligand_efficiency_sa>
-0.514439906812102

> <r_i_glide_ligand_efficiency_ln>
-1.11187006801195

> <r_i_glide_gscore>
-4.85586551151536

> <r_i_glide_lipo>
-0.0338126722955333

> <r_i_glide_hbond>
-1.05838754391517

> <r_i_glide_metal>
0

> <r_i_glide_rewards>
0.353991940253427

> <r_i_glide_evdw>
-29.5037975311279

> <r_i_glide_ecoul>
-16.6757869720459

> <r_i_glide_erotb>
0.663396273735242

> <r_i_glide_esite>
-0.804495586930042

> <r_i_glide_emodel>
-62.5597966525111

> <r_i_glide_energy>
-46.1795845031738

> <r_i_glide_einternal>
13.3197240829468

> <i_i_glide_confnum>
64

> <i_i_glide_posenum>
98

> <r_i_glide_eff_state_penalty>
0

> <r_glide_res:A132_vdw>
-3.70404427210317

> <r_glide_res:A132_coul>
-24.910452422451

> <r_glide_res:A132_hbond>
0

> <r_glide_res:A132_dist>
1.86107755718652

> <r_glide_res:A132_Eint>
-28.6144966945542

> <r_glide_res:A117_vdw>
-3.62004616009047

> <r_glide_res:A117_coul>
19.0457377821457

> <r_glide_res:A117_hbond>
0

> <r_glide_res:A117_dist>
2.16180810636408

> <r_glide_res:A117_Eint>
15.4256916220553

> <r_glide_res:A113_vdw>
-3.30731544601981

> <r_glide_res:A113_coul>
7.30901463533615

> <r_glide_res:A113_hbond>
-0.140354811641391

> <r_glide_res:A113_dist>
1.94504091733549

> <r_glide_res:A113_Eint>
3.86134437767494

> <r_glide_res:A82_vdw>
-0.58728139807249

> <r_glide_res:A82_coul>
-41.9389192965101

> <r_glide_res:A82_hbond>
-0.155965047700231

> <r_glide_res:A82_dist>
1.83123412737277

> <r_glide_res:A82_Eint>
-42.6821657422828

> <r_glide_res:A42_vdw>
2.07956263888255

> <r_glide_res:A42_coul>
-55.8678988110048

> <r_glide_res:A42_hbond>
-0.368604060922747

> <r_glide_res:A42_dist>
1.6977806532995

> <r_glide_res:A42_Eint>
-54.156940233045

> <r_glide_res:A16_vdw>
-0.720694245732556

> <r_glide_res:A16_coul>
-55.1847109090474

> <r_glide_res:A16_hbond>
-0.204915269557711

> <r_glide_res:A16_dist>
1.82783923624392

> <r_glide_res:A16_Eint>
-56.1103204243376

> <s_m_source_file>
ligprep_Nicaido_neutral.maegz

> <i_m_source_file_index>
10

> <i_lp_mmshare_version>
58128

> <i_f3d_flags>
0

> <s_lp_Force_Field>
S-OPLS

> <r_lp_Energy>
45.356438

> <b_lp_Chiralities_Consistent>
1

> <s_lp_Variant>
Cefuroxime-2

> <s_epik_input>
bzFbY0hdW2NIXVtjSF1jMS9DKD1OXE9bQ0gzXSlDKD1PKVtOSF1bQ0BASF0yQyg9TylOKFtDQEhdMjMpQyhDKD1PKVtPSF0pPUMoW0NIMl1TMylbQ0gyXU9DKD1PKVtOSDJd

> <s_epik_cmdline>
J2VwaWtfcHl0aG9uJywgJy1waHQnLCAnMC4wJywgJy1waCcsICc3LjQnLCAnLW50JywgJy1tYScsICc1MDAnLCAnLWltYWUnLCAnPGluZmlsZS5tYWU+JywgJy1vbWFlJywgJzxvdXRmaWxlLm1hZT4n

> <r_lp_tautomer_probability>
1

> <r_epik_Ionization_Penalty>
  0.0000

> <r_epik_Ionization_Penalty_Charging>
  0.0000

> <r_epik_Ionization_Penalty_Neutral>
  0.0000

> <r_epik_State_Penalty>
  0.0000

> <r_epik_Charging_Adjusted_Penalty>
8.57368987839538e-06

> <i_epik_Tot_Q>
-1

> <i_epik_Tot_abs_Q>
1

> <s_epik_Chemistry_Notes>
This compound has an ester and may undergo hydrolysis at high or low pH. This compound has an imine and may undergo hydrolysis. This compound contains an acetal/aminal-like group ( X-CH(R)-Y where X, Y are N, S, or O) that may be acid/base labile, releasing an aldehyde.

> <s_m_subgroup_title>
glide-dock_Nicaido_neutral_pv1

> <s_m_subgroupid>
glide-dock_Nicaido_neutral_pv1

> <b_m_subgroup_collapsed>
0

$$$$
Penicillin N
                    3D
 Schrodinger Suite 2022-2.
 44 45  0  0  1  0            999 V2000
  -21.3380  -21.5601  -22.2994 C   0  0  0  0  0  0
  -20.5114  -21.6019  -23.5984 C   0  0  0  0  0  0
  -19.0561  -21.2169  -23.2605 C   0  0  0  0  0  0
  -20.6898  -23.0042  -24.2811 C   0  0  2  0  0  0
  -19.5009  -23.5713  -25.0806 C   0  0  0  0  0  0
  -18.9681  -22.8576  -25.9560 O   0  5  0  0  0  0
  -19.1685  -24.7496  -24.8130 O   0  0  0  0  0  0
  -21.8186  -22.8055  -25.1634 N   0  0  0  0  0  0
  -22.1152  -21.5527  -25.8343 C   0  0  1  0  0  0
  -23.6075  -21.9192  -25.7437 C   0  0  2  0  0  0
  -24.3007  -21.0704  -24.7671 N   0  0  0  0  0  0
  -25.4663  -21.3425  -24.1585 C   0  0  0  0  0  0
  -25.9357  -20.3450  -23.0892 C   0  0  0  0  0  0
  -26.7882  -20.9833  -21.9684 C   0  0  0  0  0  0
  -28.2821  -21.1670  -22.3340 C   0  0  0  0  0  0
  -29.1061  -22.0808  -21.3903 C   0  0  2  0  0  0
  -29.1688  -21.5519  -20.0134 N   0  3  0  0  0  0
  -28.5840  -23.5312  -21.4004 C   0  0  0  0  0  0
  -27.9293  -23.9487  -20.4162 O   0  5  0  0  0  0
  -28.8356  -24.2228  -22.4133 O   0  0  0  0  0  0
  -26.1318  -22.3475  -24.4133 O   0  0  0  0  0  0
  -23.1048  -23.2719  -25.1887 C   0  0  0  0  0  0
  -23.5902  -24.3189  -24.8098 O   0  0  0  0  0  0
  -21.2332  -20.3725  -24.7552 S   0  0  0  0  0  0
  -20.9584  -22.2697  -21.5632 H   0  0  0  0  0  0
  -21.3101  -20.5702  -21.8428 H   0  0  0  0  0  0
  -22.3846  -21.8031  -22.4832 H   0  0  0  0  0  0
  -18.5794  -21.9738  -22.6386 H   0  0  0  0  0  0
  -18.4487  -21.0866  -24.1557 H   0  0  0  0  0  0
  -19.0163  -20.2725  -22.7169 H   0  0  0  0  0  0
  -20.9539  -23.7467  -23.5271 H   0  0  0  0  0  0
  -21.7298  -21.5219  -26.8558 H   0  0  0  0  0  0
  -24.0857  -21.9540  -26.7224 H   0  0  0  0  0  0
  -23.8252  -20.2140  -24.5122 H   0  0  0  0  0  0
  -26.4783  -19.5263  -23.5657 H   0  0  0  0  0  0
  -25.0510  -19.8952  -22.6360 H   0  0  0  0  0  0
  -26.7196  -20.3574  -21.0775 H   0  0  0  0  0  0
  -26.3356  -21.9346  -21.6852 H   0  0  0  0  0  0
  -28.3615  -21.5695  -23.3443 H   0  0  0  0  0  0
  -28.7526  -20.1838  -22.3859 H   0  0  0  0  0  0
  -30.1353  -22.1020  -21.7523 H   0  0  0  0  0  0
  -29.7979  -22.1142  -19.4496 H   0  0  0  0  0  0
  -28.2489  -21.5860  -19.6011 H   0  0  0  0  0  0
  -29.5230  -20.6030  -19.9878 H   0  0  0  0  0  0
  1  2  1  0  0  0
  1 25  1  0  0  0
  1 26  1  0  0  0
  1 27  1  0  0  0
  2 24  1  0  0  0
  2  3  1  0  0  0
  2  4  1  0  0  0
  3 28  1  0  0  0
  3 29  1  0  0  0
  3 30  1  0  0  0
  4  5  1  0  0  0
  4  8  1  0  0  0
  4 31  1  0  0  0
  5  6  1  0  0  0
  5  7  2  0  0  0
  8 22  1  0  0  0
  8  9  1  0  0  0
  9 10  1  0  0  0
  9 24  1  0  0  0
  9 32  1  0  0  0
 10 11  1  0  0  0
 10 22  1  0  0  0
 10 33  1  0  0  0
 11 12  1  0  0  0
 11 34  1  0  0  0
 12 13  1  0  0  0
 12 21  2  0  0  0
 13 14  1  0  0  0
 13 35  1  0  0  0
 13 36  1  0  0  0
 14 15  1  0  0  0
 14 37  1  0  0  0
 14 38  1  0  0  0
 15 16  1  0  0  0
 15 39  1  0  0  0
 15 40  1  0  0  0
 16 17  1  0  0  0
 16 18  1  0  0  0
 16 41  1  0  0  0
 17 42  1  0  0  0
 17 43  1  0  0  0
 17 44  1  0  0  0
 18 19  1  0  0  0
 18 20  2  0  0  0
 22 23  2  0  0  0
M  CHG  3   6  -1  17   1  19  -1
M  END
> <s_m_entry_id>
27492

> <s_m_entry_name>
data_maestro.26

> <s_m_Source_Path>
C:\Users\olshana1\Git\GramNeg-Accumulation\Gram Negative Permeation - OmpF

> <s_m_Source_File>
data_maestro.csv

> <i_m_Source_File_Index>
26

> <s_m_job_name>
glide-dock_Nicaido_neutral

> <s_i_glide_gridfile>
3POX-grid

> <i_i_glide_lignum>
33

> <i_i_glide_rotatable_bonds>
8

> <r_i_docking_score>
-4.85585863981647

> <r_i_glide_ligand_efficiency>
-0.202327443325686

> <r_i_glide_ligand_efficiency_sa>
-0.583613335777483

> <r_i_glide_ligand_efficiency_ln>
-1.16222979334186

> <r_i_glide_gscore>
-4.85585863981647

> <r_i_glide_lipo>
0

> <r_i_glide_hbond>
-0.934705675797647

> <r_i_glide_metal>
0

> <r_i_glide_rewards>
-0.965446144407018

> <r_i_glide_evdw>
-15.5433187484741

> <r_i_glide_ecoul>
-17.2455997467041

> <r_i_glide_erotb>
0.894795809723686

> <r_i_glide_esite>
-0.486496729906165

> <r_i_glide_emodel>
-58.7908178059507

> <r_i_glide_energy>
-32.7889184951782

> <r_i_glide_einternal>
5.80665016174316

> <i_i_glide_confnum>
97

> <i_i_glide_posenum>
306

> <r_i_glide_eff_state_penalty>
0

> <r_glide_res:A132_vdw>
2.06434338977027

> <r_glide_res:A132_coul>
-43.1567345142352

> <r_glide_res:A132_hbond>
-0.201060248703258

> <r_glide_res:A132_dist>
1.77712126916469

> <r_glide_res:A132_Eint>
-41.2934513731682

> <r_glide_res:A117_vdw>
-1.63527041405056

> <r_glide_res:A117_coul>
11.8314802897453

> <r_glide_res:A117_hbond>
0

> <r_glide_res:A117_dist>
3.05519068288885

> <r_glide_res:A117_Eint>
10.1962098756948

> <r_glide_res:A113_vdw>
2.31524787293026

> <r_glide_res:A113_coul>
-19.0250233979468

> <r_glide_res:A113_hbond>
-0.274612280409882

> <r_glide_res:A113_dist>
1.9518208342581

> <r_glide_res:A113_Eint>
-16.9843878054264

> <r_glide_res:A82_vdw>
-0.410366352634502

> <r_glide_res:A82_coul>
-47.4325084133961

> <r_glide_res:A82_hbond>
-0.277382172181479

> <r_glide_res:A82_dist>
1.94490374720562

> <r_glide_res:A82_Eint>
-48.1202569382121

> <r_glide_res:A42_vdw>
-0.653832607928647

> <r_glide_res:A42_coul>
-32.0035327690894

> <r_glide_res:A42_hbond>
-0.108583973469369

> <r_glide_res:A42_dist>
1.99252619497332

> <r_glide_res:A42_Eint>
-32.7659493504874

> <r_glide_res:A16_vdw>
-0.146863162898409

> <r_glide_res:A16_coul>
-15.412300889732

> <r_glide_res:A16_hbond>
0

> <r_glide_res:A16_dist>
5.16716186367704

> <r_glide_res:A16_Eint>
-15.5591640526304

> <s_m_source_file>
ligprep_Nicaido_neutral.maegz

> <i_m_source_file_index>
26

> <i_lp_mmshare_version>
58128

> <i_f3d_flags>
0

> <s_lp_Force_Field>
S-OPLS

> <r_lp_Energy>
12.253328

> <b_lp_Chiralities_Consistent>
1

> <s_lp_Variant>
Penicillin N-1

> <s_epik_input>
W09IXUMoPU8pW0NASF0xQyhbQ0gzXSkoW0NIM10pU1tDQEBIXShOMTIpW0NAQEhdKEMyPU8pW05IXUMoPU8pW0NIMl1bQ0gyXVtDSDJdW0NASF0oW05IMl0pQyg9TylbT0hd

> <s_epik_cmdline>
J2VwaWtfcHl0aG9uJywgJy1waHQnLCAnMC4wJywgJy1waCcsICc3LjQnLCAnLW50JywgJy1tYScsICc1MDAnLCAnLWltYWUnLCAnPGluZmlsZS5tYWU+JywgJy1vbWFlJywgJzxvdXRmaWxlLm1hZT4n

> <r_lp_tautomer_probability>
1

> <r_epik_Ionization_Penalty>
  0.0034

> <r_epik_Ionization_Penalty_Charging>
  0.0034

> <r_epik_Ionization_Penalty_Neutral>
  0.0000

> <r_epik_State_Penalty>
  0.0000

> <r_epik_Charging_Adjusted_Penalty>
0.0034368723547391

> <i_epik_Tot_Q>
-1

> <i_epik_Tot_abs_Q>
3

> <s_epik_Chemistry_Notes>
This compound contains an acetal/aminal-like group ( X-CH(R)-Y where X, Y are N, S, or O) that may be acid/base labile, releasing an aldehyde.

> <s_m_subgroup_title>
glide-dock_Nicaido_neutral_pv1

> <s_m_subgroupid>
glide-dock_Nicaido_neutral_pv1

> <b_m_subgroup_collapsed>
0

$$$$
Penicillin N
                    3D
 Schrodinger Suite 2022-2.
 44 45  0  0  1  0            999 V2000
  -22.7714  -21.3040  -20.8051 C   0  0  0  0  0  0
  -21.9172  -21.6345  -22.0433 C   0  0  0  0  0  0
  -20.4245  -21.5739  -21.6528 C   0  0  0  0  0  0
  -22.3850  -23.0103  -22.6442 C   0  0  2  0  0  0
  -21.3347  -24.0640  -23.0308 C   0  0  0  0  0  0
  -21.3674  -25.1516  -22.4135 O   0  5  0  0  0  0
  -20.5897  -23.8516  -24.0140 O   0  0  0  0  0  0
  -23.1084  -22.6462  -23.8329 N   0  0  0  0  0  0
  -22.8830  -21.4553  -24.6221 C   0  0  1  0  0  0
  -24.3312  -21.5908  -25.1302 C   0  0  2  0  0  0
  -25.2173  -20.5422  -24.6276 N   0  0  0  0  0  0
  -26.5557  -20.6271  -24.6559 C   0  0  0  0  0  0
  -27.3453  -19.5660  -23.8947 C   0  0  0  0  0  0
  -28.3903  -20.2069  -22.9576 C   0  0  0  0  0  0
  -27.7758  -20.8790  -21.7123 C   0  0  0  0  0  0
  -28.7166  -21.9084  -21.0403 C   0  0  2  0  0  0
  -28.7689  -21.6857  -19.5831 N   0  3  0  0  0  0
  -28.2748  -23.3602  -21.3443 C   0  0  0  0  0  0
  -27.5513  -23.9495  -20.5057 O   0  5  0  0  0  0
  -28.6593  -23.8894  -22.4134 O   0  0  0  0  0  0
  -27.1545  -21.5494  -25.2133 O   0  0  0  0  0  0
  -24.3689  -22.8825  -24.2887 C   0  0  0  0  0  0
  -25.1689  -23.7503  -24.0131 O   0  0  0  0  0  0
  -22.2602  -20.3493  -23.3199 S   0  0  0  0  0  0
  -22.6206  -22.0329  -20.0087 H   0  0  0  0  0  0
  -22.5228  -20.3197  -20.4046 H   0  0  0  0  0  0
  -23.8345  -21.2942  -21.0533 H   0  0  0  0  0  0
  -20.1739  -22.3393  -20.9179 H   0  0  0  0  0  0
  -19.7749  -21.7113  -22.5181 H   0  0  0  0  0  0
  -20.1721  -20.6070  -21.2181 H   0  0  0  0  0  0
  -23.0835  -23.4942  -21.9597 H   0  0  0  0  0  0
  -22.1341  -21.6055  -25.4031 H   0  0  0  0  0  0
  -24.3781  -21.7335  -26.2108 H   0  0  0  0  0  0
  -24.7879  -19.7437  -24.1767 H   0  0  0  0  0  0
  -27.8419  -18.9251  -24.6246 H   0  0  0  0  0  0
  -26.6708  -18.9210  -23.3302 H   0  0  0  0  0  0
  -28.9912  -20.9287  -23.5118 H   0  0  0  0  0  0
  -29.0935  -19.4396  -22.6297 H   0  0  0  0  0  0
  -27.4988  -20.0893  -21.0118 H   0  0  0  0  0  0
  -26.8306  -21.3591  -21.9711 H   0  0  0  0  0  0
  -29.7385  -21.7695  -21.3970 H   0  0  0  0  0  0
  -29.4481  -22.3118  -19.1701 H   0  0  0  0  0  0
  -27.8604  -21.8637  -19.1822 H   0  0  0  0  0  0
  -29.0704  -20.7393  -19.3821 H   0  0  0  0  0  0
  1  2  1  0  0  0
  1 25  1  0  0  0
  1 26  1  0  0  0
  1 27  1  0  0  0
  2 24  1  0  0  0
  2  3  1  0  0  0
  2  4  1  0  0  0
  3 28  1  0  0  0
  3 29  1  0  0  0
  3 30  1  0  0  0
  4  5  1  0  0  0
  4  8  1  0  0  0
  4 31  1  0  0  0
  5  6  1  0  0  0
  5  7  2  0  0  0
  8 22  1  0  0  0
  8  9  1  0  0  0
  9 10  1  0  0  0
  9 24  1  0  0  0
  9 32  1  0  0  0
 10 11  1  0  0  0
 10 22  1  0  0  0
 10 33  1  0  0  0
 11 12  1  0  0  0
 11 34  1  0  0  0
 12 13  1  0  0  0
 12 21  2  0  0  0
 13 14  1  0  0  0
 13 35  1  0  0  0
 13 36  1  0  0  0
 14 15  1  0  0  0
 14 37  1  0  0  0
 14 38  1  0  0  0
 15 16  1  0  0  0
 15 39  1  0  0  0
 15 40  1  0  0  0
 16 17  1  0  0  0
 16 18  1  0  0  0
 16 41  1  0  0  0
 17 42  1  0  0  0
 17 43  1  0  0  0
 17 44  1  0  0  0
 18 19  1  0  0  0
 18 20  2  0  0  0
 22 23  2  0  0  0
M  CHG  3   6  -1  17   1  19  -1
M  END
> <s_m_entry_id>
27493

> <s_m_entry_name>
data_maestro.26

> <s_m_Source_Path>
C:\Users\olshana1\Git\GramNeg-Accumulation\Gram Negative Permeation - OmpF

> <s_m_Source_File>
data_maestro.csv

> <i_m_Source_File_Index>
26

> <s_m_job_name>
glide-dock_Nicaido_neutral

> <s_i_glide_gridfile>
3POX-grid

> <i_i_glide_lignum>
33

> <i_i_glide_rotatable_bonds>
8

> <r_i_docking_score>
-4.84966048949904

> <r_i_glide_ligand_efficiency>
-0.20206918706246

> <r_i_glide_ligand_efficiency_sa>
-0.582868395808938

> <r_i_glide_ligand_efficiency_ln>
-1.16074629155632

> <r_i_glide_gscore>
-4.84966048949904

> <r_i_glide_lipo>
0

> <r_i_glide_hbond>
-1.00397611881047

> <r_i_glide_metal>
0

> <r_i_glide_rewards>
-0.964761474952128

> <r_i_glide_evdw>
-12.4815502166748

> <r_i_glide_ecoul>
-17.3964080810547

> <r_i_glide_erotb>
0.894795809723686

> <r_i_glide_esite>
-0.54217998246819

> <r_i_glide_emodel>
-55.1734840267105

> <r_i_glide_energy>
-29.8779582977295

> <r_i_glide_einternal>
7.14169359207153

> <i_i_glide_confnum>
104

> <i_i_glide_posenum>
10

> <r_i_glide_eff_state_penalty>
0

> <r_glide_res:A132_vdw>
0.316015417597487

> <r_glide_res:A132_coul>
-47.9090437310848

> <r_glide_res:A132_hbond>
-0.228505556292037

> <r_glide_res:A132_dist>
1.87607530922895

> <r_glide_res:A132_Eint>
-47.8215338697794

> <r_glide_res:A117_vdw>
-2.80657075138945

> <r_glide_res:A117_coul>
12.8135546570185

> <r_glide_res:A117_hbond>
0

> <r_glide_res:A117_dist>
2.37833616042963

> <r_glide_res:A117_Eint>
10.006983905629

> <r_glide_res:A113_vdw>
0.351667120417415

> <r_glide_res:A113_coul>
-14.6925404607838

> <r_glide_res:A113_hbond>
-0.256565045051145

> <r_glide_res:A113_dist>
2.09279829941135

> <r_glide_res:A113_Eint>
-14.5974383854175

> <r_glide_res:A82_vdw>
-1.5024460464755

> <r_glide_res:A82_coul>
-50.3439272100699

> <r_glide_res:A82_hbond>
-0.185423937045391

> <r_glide_res:A82_dist>
2.26259323965803

> <r_glide_res:A82_Eint>
-52.0317971935908

> <r_glide_res:A42_vdw>
-0.0822721409994957

> <r_glide_res:A42_coul>
-38.2657038404349

> <r_glide_res:A42_hbond>
-0.16

> <r_glide_res:A42_dist>
1.76176103304395

> <r_glide_res:A42_Eint>
-38.5079759814344

> <r_glide_res:A16_vdw>
-0.237585671622305

> <r_glide_res:A16_coul>
-19.250504954725

> <r_glide_res:A16_hbond>
0

> <r_glide_res:A16_dist>
4.29477965828185

> <r_glide_res:A16_Eint>
-19.4880906263473

> <s_m_source_file>
ligprep_Nicaido_neutral.maegz

> <i_m_source_file_index>
26

> <i_lp_mmshare_version>
58128

> <i_f3d_flags>
0

> <s_lp_Force_Field>
S-OPLS

> <r_lp_Energy>
12.253328

> <b_lp_Chiralities_Consistent>
1

> <s_lp_Variant>
Penicillin N-1

> <s_epik_input>
W09IXUMoPU8pW0NASF0xQyhbQ0gzXSkoW0NIM10pU1tDQEBIXShOMTIpW0NAQEhdKEMyPU8pW05IXUMoPU8pW0NIMl1bQ0gyXVtDSDJdW0NASF0oW05IMl0pQyg9TylbT0hd

> <s_epik_cmdline>
J2VwaWtfcHl0aG9uJywgJy1waHQnLCAnMC4wJywgJy1waCcsICc3LjQnLCAnLW50JywgJy1tYScsICc1MDAnLCAnLWltYWUnLCAnPGluZmlsZS5tYWU+JywgJy1vbWFlJywgJzxvdXRmaWxlLm1hZT4n

> <r_lp_tautomer_probability>
1

> <r_epik_Ionization_Penalty>
  0.0034

> <r_epik_Ionization_Penalty_Charging>
  0.0034

> <r_epik_Ionization_Penalty_Neutral>
  0.0000

> <r_epik_State_Penalty>
  0.0000

> <r_epik_Charging_Adjusted_Penalty>
0.0034368723547391

> <i_epik_Tot_Q>
-1

> <i_epik_Tot_abs_Q>
3

> <s_epik_Chemistry_Notes>
This compound contains an acetal/aminal-like group ( X-CH(R)-Y where X, Y are N, S, or O) that may be acid/base labile, releasing an aldehyde.

> <s_m_subgroup_title>
glide-dock_Nicaido_neutral_pv1

> <s_m_subgroupid>
glide-dock_Nicaido_neutral_pv1

> <b_m_subgroup_collapsed>
0

$$$$
Cefuroxime
                    3D
 Schrodinger Suite 2022-2.
 44 46  0  0  1  0            999 V2000
  -22.6487  -25.9492  -19.8776 C   0  0  0  0  0  0
  -23.8016  -25.5406  -19.1618 O   0  0  0  0  0  0
  -23.4196  -24.5071  -18.2964 N   0  0  0  0  0  0
  -24.1710  -23.4694  -18.3137 C   0  0  0  0  0  0
  -23.8012  -22.3430  -17.4542 C   0  0  0  0  0  0
  -23.7602  -20.9791  -17.5965 C   0  0  0  0  0  0
  -23.1663  -20.4629  -16.4136 C   0  0  0  0  0  0
  -22.9094  -21.5430  -15.6186 C   0  0  0  0  0  0
  -23.2801  -22.6944  -16.2393 O   0  0  0  0  0  0
  -25.4077  -23.2572  -19.2026 C   0  0  0  0  0  0
  -26.2847  -22.3329  -18.7429 N   0  0  0  0  0  0
  -27.5194  -21.8215  -19.3745 C   0  0  1  0  0  0
  -27.2572  -21.0159  -20.6615 C   0  0  1  0  0  0
  -28.3061  -21.8102  -21.2800 N   0  0  0  0  0  0
  -28.2827  -22.7950  -20.3035 C   0  0  0  0  0  0
  -28.6486  -23.9498  -20.2661 O   0  0  0  0  0  0
  -28.6353  -21.5790  -22.6284 C   0  0  0  0  0  0
  -28.6207  -22.8077  -23.6212 C   0  0  0  0  0  0
  -28.3688  -22.5789  -24.8263 O   0  5  0  0  0  0
  -28.7844  -23.9492  -23.1362 O   0  0  0  0  0  0
  -29.0429  -20.3239  -22.9547 C   0  0  0  0  0  0
  -29.0960  -19.2311  -21.8885 C   0  0  0  0  0  0
  -27.6503  -19.2349  -20.7766 S   0  0  0  0  0  0
  -29.7359  -19.9512  -24.2639 C   0  0  0  0  0  0
  -29.0033  -19.0384  -25.0758 O   0  0  0  0  0  0
  -29.5403  -18.6755  -26.2583 C   0  0  0  0  0  0
  -28.7700  -17.7058  -26.8561 N   0  0  0  0  0  0
  -30.5672  -19.1489  -26.7472 O   0  0  0  0  0  0
  -25.5611  -23.8806  -20.2584 O   0  0  0  0  0  0
  -22.8993  -26.7878  -20.5276 H   0  0  0  0  0  0
  -22.2740  -25.1395  -20.5038 H   0  0  0  0  0  0
  -21.8432  -26.2664  -19.2143 H   0  0  0  0  0  0
  -24.0892  -20.4190  -18.4599 H   0  0  0  0  0  0
  -22.9665  -19.4294  -16.1672 H   0  0  0  0  0  0
  -22.4913  -21.6610  -14.6296 H   0  0  0  0  0  0
  -26.0689  -21.9046  -17.8530 H   0  0  0  0  0  0
  -28.1626  -21.2778  -18.6791 H   0  0  0  0  0  0
  -26.2936  -21.2264  -21.1313 H   0  0  0  0  0  0
  -29.1705  -18.2468  -22.3497 H   0  0  0  0  0  0
  -29.9990  -19.3708  -21.2932 H   0  0  0  0  0  0
  -29.9792  -20.8389  -24.8444 H   0  0  0  0  0  0
  -30.6960  -19.5009  -24.0072 H   0  0  0  0  0  0
  -27.9076  -17.3595  -26.4122 H   0  0  0  0  0  0
  -29.1183  -17.2709  -27.6974 H   0  0  0  0  0  0
  1  2  1  0  0  0
  1 30  1  0  0  0
  1 31  1  0  0  0
  1 32  1  0  0  0
  2  3  1  0  0  0
  3  4  2  3  0  0
  4  5  1  0  0  0
  4 10  1  0  0  0
  5  9  1  0  0  0
  5  6  2  0  0  0
  6  7  1  0  0  0
  6 33  1  0  0  0
  7  8  2  0  0  0
  7 34  1  0  0  0
  8  9  1  0  0  0
  8 35  1  0  0  0
 10 11  1  0  0  0
 10 29  2  0  0  0
 11 12  1  0  0  0
 11 36  1  0  0  0
 12 15  1  0  0  0
 12 13  1  0  0  0
 12 37  1  0  0  0
 13 23  1  0  0  0
 13 14  1  0  0  0
 13 38  1  0  0  0
 14 15  1  0  0  0
 14 17  1  0  0  0
 15 16  2  0  0  0
 17 18  1  0  0  0
 17 21  2  0  0  0
 18 19  1  0  0  0
 18 20  2  0  0  0
 21 22  1  0  0  0
 21 24  1  0  0  0
 22 23  1  0  0  0
 22 39  1  0  0  0
 22 40  1  0  0  0
 24 25  1  0  0  0
 24 41  1  0  0  0
 24 42  1  0  0  0
 25 26  1  0  0  0
 26 27  1  0  0  0
 26 28  2  0  0  0
 27 43  1  0  0  0
 27 44  1  0  0  0
M  CHG  1  19  -1
M  END
> <s_m_entry_id>
27494

> <s_m_entry_name>
data_maestro.10

> <s_m_Source_Path>
C:\Users\olshana1\Git\GramNeg-Accumulation\Gram Negative Permeation - OmpF

> <s_m_Source_File>
data_maestro.csv

> <i_m_Source_File_Index>
10

> <s_m_job_name>
glide-dock_Nicaido_neutral

> <s_i_glide_gridfile>
3POX-grid

> <i_i_glide_lignum>
14

> <i_i_glide_rotatable_bonds>
9

> <r_i_docking_score>
-4.84498876391174

> <r_i_glide_ligand_efficiency>
-0.167068578065922

> <r_i_glide_ligand_efficiency_sa>
-0.513287602859212

> <r_i_glide_ligand_efficiency_ln>
-1.10937956862124

> <r_i_glide_gscore>
-4.84498876391174

> <r_i_glide_lipo>
-0.031220521062792

> <r_i_glide_hbond>
-1.08526756231462

> <r_i_glide_metal>
0

> <r_i_glide_rewards>
0.43459303618627

> <r_i_glide_evdw>
-27.7590961456299

> <r_i_glide_ecoul>
-18.1772079467773

> <r_i_glide_erotb>
0.663396273735242

> <r_i_glide_esite>
-0.71195399115775

> <r_i_glide_emodel>
-64.6904700927965

> <r_i_glide_energy>
-45.9363040924072

> <r_i_glide_einternal>
7.99680519104004

> <i_i_glide_confnum>
105

> <i_i_glide_posenum>
40

> <r_i_glide_eff_state_penalty>
0

> <r_glide_res:A132_vdw>
-1.45580295776839

> <r_glide_res:A132_coul>
-47.2820610305837

> <r_glide_res:A132_hbond>
-0.32

> <r_glide_res:A132_dist>
1.81245866733231

> <r_glide_res:A132_Eint>
-49.0578639883521

> <r_glide_res:A117_vdw>
-0.871567779089033

> <r_glide_res:A117_coul>
15.0415068508048

> <r_glide_res:A117_hbond>
-0.158789425783438

> <r_glide_res:A117_dist>
1.75449089665044

> <r_glide_res:A117_Eint>
14.0111496459323

> <r_glide_res:A113_vdw>
-3.23841607644781

> <r_glide_res:A113_coul>
22.316891897384

> <r_glide_res:A113_hbond>
0

> <r_glide_res:A113_dist>
2.8277707076444

> <r_glide_res:A113_Eint>
19.0784758209361

> <r_glide_res:A82_vdw>
0.421710955667434

> <r_glide_res:A82_coul>
-52.6177700130985

> <r_glide_res:A82_hbond>
-0.28205256777082

> <r_glide_res:A82_dist>
1.90169529967257

> <r_glide_res:A82_Eint>
-52.4781116252018

> <r_glide_res:A42_vdw>
-0.855748584671805

> <r_glide_res:A42_coul>
-47.2194238042807

> <r_glide_res:A42_hbond>
-0.320922276775974

> <r_glide_res:A42_dist>
2.06374763092996

> <r_glide_res:A42_Eint>
-48.3960946657285

> <r_glide_res:A16_vdw>
-0.463148131238962

> <r_glide_res:A16_coul>
-34.6628871730825

> <r_glide_res:A16_hbond>
-0.00350329198438501

> <r_glide_res:A16_dist>
2.45080836692355

> <r_glide_res:A16_Eint>
-35.1295385963058

> <s_m_source_file>
ligprep_Nicaido_neutral.maegz

> <i_m_source_file_index>
10

> <i_lp_mmshare_version>
58128

> <i_f3d_flags>
0

> <s_lp_Force_Field>
S-OPLS

> <r_lp_Energy>
45.356438

> <b_lp_Chiralities_Consistent>
1

> <s_lp_Variant>
Cefuroxime-2

> <s_epik_input>
bzFbY0hdW2NIXVtjSF1jMS9DKD1OXE9bQ0gzXSlDKD1PKVtOSF1bQ0BASF0yQyg9TylOKFtDQEhdMjMpQyhDKD1PKVtPSF0pPUMoW0NIMl1TMylbQ0gyXU9DKD1PKVtOSDJd

> <s_epik_cmdline>
J2VwaWtfcHl0aG9uJywgJy1waHQnLCAnMC4wJywgJy1waCcsICc3LjQnLCAnLW50JywgJy1tYScsICc1MDAnLCAnLWltYWUnLCAnPGluZmlsZS5tYWU+JywgJy1vbWFlJywgJzxvdXRmaWxlLm1hZT4n

> <r_lp_tautomer_probability>
1

> <r_epik_Ionization_Penalty>
  0.0000

> <r_epik_Ionization_Penalty_Charging>
  0.0000

> <r_epik_Ionization_Penalty_Neutral>
  0.0000

> <r_epik_State_Penalty>
  0.0000

> <r_epik_Charging_Adjusted_Penalty>
8.57368987839538e-06

> <i_epik_Tot_Q>
-1

> <i_epik_Tot_abs_Q>
1

> <s_epik_Chemistry_Notes>
This compound has an ester and may undergo hydrolysis at high or low pH. This compound has an imine and may undergo hydrolysis. This compound contains an acetal/aminal-like group ( X-CH(R)-Y where X, Y are N, S, or O) that may be acid/base labile, releasing an aldehyde.

> <s_m_subgroup_title>
glide-dock_Nicaido_neutral_pv1

> <s_m_subgroupid>
glide-dock_Nicaido_neutral_pv1

> <b_m_subgroup_collapsed>
0

$$$$
Cephaloridine
                    3D
 Schrodinger Suite 2022-2.
 45 48  0  0  1  0            999 V2000
  -26.5096  -21.5447  -25.2134 O   0  0  0  0  0  0
  -26.7136  -20.9246  -24.1938 C   0  0  0  0  0  0
  -26.0384  -19.8289  -23.3339 C   0  0  2  0  0  0
  -24.5752  -19.9371  -23.2539 N   0  0  0  0  0  0
  -23.8125  -21.0360  -23.0883 C   0  0  0  0  0  0
  -22.3298  -20.8789  -23.4150 C   0  0  0  0  0  0
  -22.1637  -20.7132  -24.8909 C   0  0  0  0  0  0
  -22.1811  -21.6807  -25.8643 C   0  0  0  0  0  0
  -22.0635  -21.1489  -27.1810 C   0  0  0  0  0  0
  -21.9463  -19.7861  -27.1927 C   0  0  0  0  0  0
  -21.9795  -19.1286  -25.5875 S   0  0  0  0  0  0
  -24.2441  -22.1420  -22.7605 O   0  0  0  0  0  0
  -26.8289  -20.4856  -22.1787 C   0  0  2  0  0  0
  -27.7021  -20.9906  -23.2394 N   0  0  0  0  0  0
  -28.8227  -21.7471  -22.8869 C   0  0  0  0  0  0
  -28.9996  -23.1389  -23.5701 C   0  0  0  0  0  0
  -28.9294  -24.1317  -22.8111 O   0  5  0  0  0  0
  -29.1661  -23.1498  -24.8130 O   0  0  0  0  0  0
  -29.6975  -21.1951  -22.0151 C   0  0  0  0  0  0
  -30.9627  -21.8681  -21.4959 C   0  0  0  0  0  0
  -32.1478  -21.2612  -22.1258 N   0  3  0  0  0  0
  -32.4574  -21.6051  -23.4027 C   0  0  0  0  0  0
  -33.5878  -21.0563  -24.0425 C   0  0  0  0  0  0
  -34.3982  -20.1454  -23.3379 C   0  0  0  0  0  0
  -34.0562  -19.8088  -22.0138 C   0  0  0  0  0  0
  -32.9116  -20.3858  -21.4277 C   0  0  0  0  0  0
  -29.4711  -19.7607  -21.5541 C   0  0  0  0  0  0
  -27.7852  -19.5417  -20.9256 S   0  0  0  0  0  0
  -26.3753  -18.8132  -23.5517 H   0  0  0  0  0  0
  -24.0872  -19.0962  -23.5326 H   0  0  0  0  0  0
  -21.7799  -21.7536  -23.0675 H   0  0  0  0  0  0
  -21.9265  -20.0170  -22.8818 H   0  0  0  0  0  0
  -22.2932  -22.7386  -25.6821 H   0  0  0  0  0  0
  -22.0783  -21.7732  -28.0615 H   0  0  0  0  0  0
  -21.8480  -19.1183  -28.0321 H   0  0  0  0  0  0
  -26.3180  -21.3127  -21.6821 H   0  0  0  0  0  0
  -30.9971  -22.9379  -21.6976 H   0  0  0  0  0  0
  -31.0326  -21.7511  -20.4146 H   0  0  0  0  0  0
  -31.7972  -22.3110  -23.8838 H   0  0  0  0  0  0
  -33.8349  -21.3337  -25.0569 H   0  0  0  0  0  0
  -35.2749  -19.7170  -23.8026 H   0  0  0  0  0  0
  -34.6675  -19.1278  -21.4389 H   0  0  0  0  0  0
  -32.6029  -20.1689  -20.4140 H   0  0  0  0  0  0
  -29.6100  -19.0946  -22.4065 H   0  0  0  0  0  0
  -30.1984  -19.4474  -20.8131 H   0  0  0  0  0  0
  1  2  2  0  0  0
  2 14  1  0  0  0
  2  3  1  0  0  0
  3  4  1  0  0  0
  3 13  1  0  0  0
  3 29  1  0  0  0
  4  5  1  0  0  0
  4 30  1  0  0  0
  5  6  1  0  0  0
  5 12  2  0  0  0
  6  7  1  0  0  0
  6 31  1  0  0  0
  6 32  1  0  0  0
  7 11  1  0  0  0
  7  8  2  0  0  0
  8  9  1  0  0  0
  8 33  1  0  0  0
  9 10  2  0  0  0
  9 34  1  0  0  0
 10 11  1  0  0  0
 10 35  1  0  0  0
 13 28  1  0  0  0
 13 14  1  0  0  0
 13 36  1  0  0  0
 14 15  1  0  0  0
 15 16  1  0  0  0
 15 19  2  0  0  0
 16 17  1  0  0  0
 16 18  2  0  0  0
 19 20  1  0  0  0
 19 27  1  0  0  0
 20 21  1  0  0  0
 20 37  1  0  0  0
 20 38  1  0  0  0
 21 26  1  0  0  0
 21 22  2  0  0  0
 22 23  1  0  0  0
 22 39  1  0  0  0
 23 24  2  0  0  0
 23 40  1  0  0  0
 24 25  1  0  0  0
 24 41  1  0  0  0
 25 26  2  0  0  0
 25 42  1  0  0  0
 26 43  1  0  0  0
 27 28  1  0  0  0
 27 44  1  0  0  0
 27 45  1  0  0  0
M  CHG  2  17  -1  21   1
M  END
> <s_m_entry_id>
27495

> <s_m_entry_name>
data_maestro.13

> <s_m_Source_Path>
C:\Users\olshana1\Git\GramNeg-Accumulation\Gram Negative Permeation - OmpF

> <s_m_Source_File>
data_maestro.csv

> <i_m_Source_File_Index>
13

> <s_m_job_name>
glide-dock_Nicaido_neutral

> <s_i_glide_gridfile>
3POX-grid

> <i_i_glide_lignum>
18

> <i_i_glide_rotatable_bonds>
7

> <r_i_docking_score>
-4.84204796751608

> <r_i_glide_ligand_efficiency>
-0.172930284554146

> <r_i_glide_ligand_efficiency_sa>
-0.525118194397172

> <r_i_glide_ligand_efficiency_ln>
-1.11768683960865

> <r_i_glide_gscore>
-4.84204796751608

> <r_i_glide_lipo>
-0.389546871670934

> <r_i_glide_hbond>
-0.637656841855871

> <r_i_glide_metal>
0

> <r_i_glide_rewards>
-0.566417057801375

> <r_i_glide_evdw>
-24.5789680480957

> <r_i_glide_ecoul>
-14.7145080566406

> <r_i_glide_erotb>
0.571951339556603

> <r_i_glide_esite>
-0.384253924843625

> <r_i_glide_emodel>
-61.9176530716149

> <r_i_glide_energy>
-39.2934761047363

> <r_i_glide_einternal>
5.45428037643433

> <i_i_glide_confnum>
57

> <i_i_glide_posenum>
33

> <r_i_glide_eff_state_penalty>
0

> <r_glide_res:A132_vdw>
-1.06022253262779

> <r_glide_res:A132_coul>
-13.3850927079476

> <r_glide_res:A132_hbond>
0

> <r_glide_res:A132_dist>
2.87952498402749

> <r_glide_res:A132_Eint>
-14.4453152405754

> <r_glide_res:A117_vdw>
-4.33424484191576

> <r_glide_res:A117_coul>
-2.35953508002806

> <r_glide_res:A117_hbond>
0

> <r_glide_res:A117_dist>
2.45527123027987

> <r_glide_res:A117_Eint>
-6.69377992194382

> <r_glide_res:A113_vdw>
-3.46929196267734

> <r_glide_res:A113_coul>
-18.1199898165825

> <r_glide_res:A113_hbond>
0

> <r_glide_res:A113_dist>
2.29141296603496

> <r_glide_res:A113_Eint>
-21.5892817792599

> <r_glide_res:A82_vdw>
0.697659041643725

> <r_glide_res:A82_coul>
-27.9803164188711

> <r_glide_res:A82_hbond>
-0.289722945202468

> <r_glide_res:A82_dist>
1.79057208434995

> <r_glide_res:A82_Eint>
-27.5723803224298

> <r_glide_res:A42_vdw>
1.81140577861809

> <r_glide_res:A42_coul>
-30.7973122513823

> <r_glide_res:A42_hbond>
-0.347933896653403

> <r_glide_res:A42_dist>
1.7708396432224

> <r_glide_res:A42_Eint>
-29.3338403694176

> <r_glide_res:A16_vdw>
-0.47707742670119

> <r_glide_res:A16_coul>
-5.86326791422359

> <r_glide_res:A16_hbond>
0

> <r_glide_res:A16_dist>
4.01979462286414

> <r_glide_res:A16_Eint>
-6.34034534092478

> <s_m_source_file>
ligprep_Nicaido_neutral.maegz

> <i_m_source_file_index>
13

> <i_lp_mmshare_version>
58128

> <i_f3d_flags>
0

> <s_lp_Force_Field>
S-OPLS

> <r_lp_Energy>
50.740529

> <b_lp_Chiralities_Consistent>
1

> <s_lp_Variant>
Cephaloridine-1

> <s_epik_input>
czFbY0hdW2NIXVtjSF1jMVtDSDJdQyg9TylbTkhdW0NASF0yQyg9TylOKFtDQEBIXTIzKUMoQyg9TylbT0hdKT1DKFtDSDJdUzMpW0NIMl1bbitdNFtjSF1bY0hdW2NIXVtjSF1bY0hdNA==

> <s_epik_cmdline>
J2VwaWtfcHl0aG9uJywgJy1waHQnLCAnMC4wJywgJy1waCcsICc3LjQnLCAnLW50JywgJy1tYScsICc1MDAnLCAnLWltYWUnLCAnPGluZmlsZS5tYWU+JywgJy1vbWFlJywgJzxvdXRmaWxlLm1hZT4n

> <r_lp_tautomer_probability>
1

> <r_epik_Ionization_Penalty>
  0.0000

> <r_epik_Ionization_Penalty_Charging>
  0.0000

> <r_epik_Ionization_Penalty_Neutral>
  0.0000

> <r_epik_State_Penalty>
  0.0000

> <r_epik_Charging_Adjusted_Penalty>
1.62498989321064e-05

> <i_epik_Tot_Q>
0

> <i_epik_Tot_abs_Q>
2

> <s_epik_Chemistry_Notes>
This compound contains an acetal/aminal-like group ( X-CH(R)-Y where X, Y are N, S, or O) that may be acid/base labile, releasing an aldehyde.

> <s_m_subgroup_title>
glide-dock_Nicaido_neutral_pv1

> <s_m_subgroupid>
glide-dock_Nicaido_neutral_pv1

> <b_m_subgroup_collapsed>
0

$$$$
Cefoxitin
                    3D
 Schrodinger Suite 2022-2.
 44 46  0  0  1  0            999 V2000
  -31.1223  -18.8898  -25.9929 C   0  0  0  0  0  0
  -32.1018  -19.9171  -25.8179 O   0  0  0  0  0  0
  -31.7272  -21.2038  -25.2908 C   0  0  2  0  0  0
  -31.3692  -21.2653  -23.7855 C   0  0  1  0  0  0
  -29.9858  -21.4575  -24.1887 N   0  0  0  0  0  0
  -30.2436  -21.5906  -25.5389 C   0  0  0  0  0  0
  -29.5692  -21.9406  -26.4817 O   0  0  0  0  0  0
  -28.9650  -21.6857  -23.2530 C   0  0  0  0  0  0
  -27.7180  -22.4647  -23.7844 C   0  0  0  0  0  0
  -27.4605  -23.5494  -23.2124 O   0  5  0  0  0  0
  -27.1683  -22.0135  -24.8132 O   0  0  0  0  0  0
  -29.0408  -21.2056  -21.9861 C   0  0  0  0  0  0
  -30.2588  -20.4588  -21.4363 C   0  0  0  0  0  0
  -31.4186  -19.8284  -22.6784 S   0  0  0  0  0  0
  -27.9284  -21.3705  -20.9551 C   0  0  0  0  0  0
  -28.4132  -21.9841  -19.7727 O   0  0  0  0  0  0
  -28.0598  -23.2210  -19.4197 C   0  0  0  0  0  0
  -28.7689  -23.5489  -18.2925 N   0  0  0  0  0  0
  -27.2534  -23.9495  -20.0022 O   0  0  0  0  0  0
  -32.6981  -22.2228  -25.7217 N   0  0  0  0  0  0
  -32.5962  -23.5674  -25.6814 C   0  0  0  0  0  0
  -33.6879  -24.3561  -26.4026 C   0  0  0  0  0  0
  -33.1994  -24.8350  -27.7354 C   0  0  0  0  0  0
  -32.4503  -25.9546  -28.0016 C   0  0  0  0  0  0
  -32.1728  -26.1315  -29.3893 C   0  0  0  0  0  0
  -32.7228  -25.1479  -30.1677 C   0  0  0  0  0  0
  -33.5692  -23.9668  -29.2053 S   0  0  0  0  0  0
  -31.6701  -24.1758  -25.1428 O   0  0  0  0  0  0
  -31.6234  -17.9641  -26.2759 H   0  0  0  0  0  0
  -30.5524  -18.6866  -25.0862 H   0  0  0  0  0  0
  -30.4218  -19.1371  -26.7919 H   0  0  0  0  0  0
  -31.7465  -22.1550  -23.2760 H   0  0  0  0  0  0
  -30.8101  -21.1516  -20.8047 H   0  0  0  0  0  0
  -29.9380  -19.6233  -20.8137 H   0  0  0  0  0  0
  -27.0550  -21.8857  -21.3518 H   0  0  0  0  0  0
  -27.5818  -20.3736  -20.6827 H   0  0  0  0  0  0
  -29.4955  -22.8880  -18.0119 H   0  0  0  0  0  0
  -28.5920  -24.4237  -17.8265 H   0  0  0  0  0  0
  -33.5297  -21.8476  -26.1513 H   0  0  0  0  0  0
  -34.5822  -23.7447  -26.5218 H   0  0  0  0  0  0
  -33.9742  -25.2059  -25.7833 H   0  0  0  0  0  0
  -32.1073  -26.6572  -27.2538 H   0  0  0  0  0  0
  -31.6043  -26.9723  -29.7612 H   0  0  0  0  0  0
  -32.6943  -25.0477  -31.2432 H   0  0  0  0  0  0
  1  2  1  0  0  0
  1 29  1  0  0  0
  1 30  1  0  0  0
  1 31  1  0  0  0
  2  3  1  0  0  0
  3  6  1  0  0  0
  3  4  1  0  0  0
  3 20  1  0  0  0
  4 14  1  0  0  0
  4  5  1  0  0  0
  4 32  1  0  0  0
  5  6  1  0  0  0
  5  8  1  0  0  0
  6  7  2  0  0  0
  8  9  1  0  0  0
  8 12  2  0  0  0
  9 10  1  0  0  0
  9 11  2  0  0  0
 12 13  1  0  0  0
 12 15  1  0  0  0
 13 14  1  0  0  0
 13 33  1  0  0  0
 13 34  1  0  0  0
 15 16  1  0  0  0
 15 35  1  0  0  0
 15 36  1  0  0  0
 16 17  1  0  0  0
 17 18  1  0  0  0
 17 19  2  0  0  0
 18 37  1  0  0  0
 18 38  1  0  0  0
 20 21  1  0  0  0
 20 39  1  0  0  0
 21 22  1  0  0  0
 21 28  2  0  0  0
 22 23  1  0  0  0
 22 40  1  0  0  0
 22 41  1  0  0  0
 23 27  1  0  0  0
 23 24  2  0  0  0
 24 25  1  0  0  0
 24 42  1  0  0  0
 25 26  2  0  0  0
 25 43  1  0  0  0
 26 27  1  0  0  0
 26 44  1  0  0  0
M  CHG  1  10  -1
M  END
> <s_m_entry_id>
27496

> <s_m_entry_name>
data_maestro.4

> <s_m_Source_Path>
C:\Users\olshana1\Git\GramNeg-Accumulation\Gram Negative Permeation - OmpF

> <s_m_Source_File>
data_maestro.csv

> <i_m_Source_File_Index>
4

> <s_m_job_name>
glide-dock_Nicaido_neutral

> <s_i_glide_gridfile>
3POX-grid

> <i_i_glide_lignum>
4

> <i_i_glide_rotatable_bonds>
9

> <r_i_docking_score>
-4.83847549036429

> <r_i_glide_ligand_efficiency>
-0.172802696084439

> <r_i_glide_ligand_efficiency_sa>
-0.524730760657552

> <r_i_glide_ligand_efficiency_ln>
-1.11686220698953

> <r_i_glide_gscore>
-4.83847549036429

> <r_i_glide_lipo>
-0.0688908312452086

> <r_i_glide_hbond>
-1.03119198549285

> <r_i_glide_metal>
0

> <r_i_glide_rewards>
-0.500452617884902

> <r_i_glide_evdw>
-25.2850017547607

> <r_i_glide_ecoul>
-13.0005779266357

> <r_i_glide_erotb>
0.545654768997296

> <r_i_glide_esite>
-0.569258048005224

> <r_i_glide_emodel>
-54.3249492047384

> <r_i_glide_energy>
-38.2855796813965

> <r_i_glide_einternal>
20.0866031646729

> <i_i_glide_confnum>
33

> <i_i_glide_posenum>
184

> <r_i_glide_eff_state_penalty>
0

> <r_glide_res:A132_vdw>
-1.53555728427554

> <r_glide_res:A132_coul>
-38.192464217634

> <r_glide_res:A132_hbond>
-0.200114402602333

> <r_glide_res:A132_dist>
2.06376252137898

> <r_glide_res:A132_Eint>
-39.9281359045119

> <r_glide_res:A117_vdw>
-1.32671683977215

> <r_glide_res:A117_coul>
27.040519829296

> <r_glide_res:A117_hbond>
0

> <r_glide_res:A117_dist>
3.61144203030297

> <r_glide_res:A117_Eint>
25.7138029895238

> <r_glide_res:A113_vdw>
-2.31847190255927

> <r_glide_res:A113_coul>
15.0885521377272

> <r_glide_res:A113_hbond>
-0.16

> <r_glide_res:A113_dist>
1.96838328450964

> <r_glide_res:A113_Eint>
12.610080235168

> <r_glide_res:A82_vdw>
-0.612701125763679

> <r_glide_res:A82_coul>
-49.8306243809791

> <r_glide_res:A82_hbond>
-0.2

> <r_glide_res:A82_dist>
1.786560849649

> <r_glide_res:A82_Eint>
-50.6433255067428

> <r_glide_res:A42_vdw>
0.109044944101325

> <r_glide_res:A42_coul>
-55.5824874596641

> <r_glide_res:A42_hbond>
-0.311077582890516

> <r_glide_res:A42_dist>
1.69852894909742

> <r_glide_res:A42_Eint>
-55.7845200984533

> <r_glide_res:A16_vdw>
-4.23311763603721

> <r_glide_res:A16_coul>
-32.9907643578791

> <r_glide_res:A16_hbond>
-0.16

> <r_glide_res:A16_dist>
1.95295644339275

> <r_glide_res:A16_Eint>
-37.3838819939163

> <s_m_source_file>
ligprep_Nicaido_neutral.maegz

> <i_m_source_file_index>
4

> <i_lp_mmshare_version>
58128

> <i_f3d_flags>
0

> <s_lp_Force_Field>
S-OPLS

> <r_lp_Energy>
27.517474

> <b_lp_Chiralities_Consistent>
1

> <s_lp_Variant>
Cefoxitin-1

> <s_epik_input>
czFbY0hdW2NIXVtjSF1jMVtDSDJdQyg9TylbTkhdW0NAXTIoT1tDSDNdKUMoPU8pTihbQ0BIXTIzKUMoQyg9TylbT0hdKT1DKFtDSDJdUzMpW0NIMl1PQyg9TylbTkgyXQ==

> <s_epik_cmdline>
J2VwaWtfcHl0aG9uJywgJy1waHQnLCAnMC4wJywgJy1waCcsICc3LjQnLCAnLW50JywgJy1tYScsICc1MDAnLCAnLWltYWUnLCAnPGluZmlsZS5tYWU+JywgJy1vbWFlJywgJzxvdXRmaWxlLm1hZT4n

> <r_lp_tautomer_probability>
1

> <r_epik_Ionization_Penalty>
  0.0000

> <r_epik_Ionization_Penalty_Charging>
  0.0000

> <r_epik_Ionization_Penalty_Neutral>
  0.0000

> <r_epik_State_Penalty>
  0.0000

> <r_epik_Charging_Adjusted_Penalty>
8.89144247208744e-06

> <i_epik_Tot_Q>
-1

> <i_epik_Tot_abs_Q>
1

> <s_epik_Chemistry_Notes>
This compound has an ester and may undergo hydrolysis at high or low pH. This compound contains an acetal/aminal-like group ( X-CH(R)-Y where X, Y are N, S, or O) that may be acid/base labile, releasing an aldehyde.

> <s_m_subgroup_title>
glide-dock_Nicaido_neutral_pv1

> <s_m_subgroupid>
glide-dock_Nicaido_neutral_pv1

> <b_m_subgroup_collapsed>
0

$$$$
Cefoxitin
                    3D
 Schrodinger Suite 2022-2.
 44 46  0  0  1  0            999 V2000
  -33.6815  -19.8280  -25.8407 C   0  0  0  0  0  0
  -32.3313  -20.2496  -25.9790 O   0  0  0  0  0  0
  -32.0235  -21.5161  -25.3987 C   0  0  2  0  0  0
  -31.7691  -21.5128  -23.8706 C   0  0  1  0  0  0
  -30.3705  -21.7662  -24.1648 N   0  0  0  0  0  0
  -30.5052  -21.7749  -25.5356 C   0  0  0  0  0  0
  -29.7190  -21.9495  -26.4384 O   0  0  0  0  0  0
  -29.4388  -22.0320  -23.1509 C   0  0  0  0  0  0
  -28.2127  -22.9346  -23.5270 C   0  0  0  0  0  0
  -28.0162  -23.9490  -22.8132 O   0  5  0  0  0  0
  -27.5686  -22.6192  -24.5492 O   0  0  0  0  0  0
  -29.5802  -21.4876  -21.9182 C   0  0  0  0  0  0
  -30.7557  -20.6008  -21.4994 C   0  0  0  0  0  0
  -31.8139  -20.0103  -22.8521 S   0  0  0  0  0  0
  -28.5908  -21.7281  -20.7931 C   0  0  0  0  0  0
  -29.1611  -22.6303  -19.8722 O   0  0  0  0  0  0
  -28.4384  -23.5491  -19.2455 C   0  0  0  0  0  0
  -29.1689  -23.9496  -18.1594 N   0  0  0  0  0  0
  -27.3260  -23.9606  -19.5762 O   0  0  0  0  0  0
  -32.8845  -22.6046  -25.9029 N   0  0  0  0  0  0
  -32.6876  -23.9364  -25.8583 C   0  0  0  0  0  0
  -33.6845  -24.7990  -26.6325 C   0  0  0  0  0  0
  -33.2817  -24.9393  -28.0697 C   0  0  0  0  0  0
  -33.8742  -24.3680  -29.1684 C   0  0  0  0  0  0
  -33.2634  -24.7492  -30.3997 C   0  0  0  0  0  0
  -32.2071  -25.6026  -30.2259 C   0  0  0  0  0  0
  -31.9365  -25.9520  -28.5415 S   0  0  0  0  0  0
  -31.7527  -24.4760  -25.2682 O   0  0  0  0  0  0
  -33.7773  -18.8027  -26.1990 H   0  0  0  0  0  0
  -34.3582  -20.4466  -26.4304 H   0  0  0  0  0  0
  -34.0094  -19.8496  -24.8010 H   0  0  0  0  0  0
  -32.2198  -22.3571  -23.3457 H   0  0  0  0  0  0
  -31.3766  -21.1668  -20.8059 H   0  0  0  0  0  0
  -30.3834  -19.7292  -20.9598 H   0  0  0  0  0  0
  -27.6281  -22.0779  -21.1641 H   0  0  0  0  0  0
  -28.3907  -20.7845  -20.2849 H   0  0  0  0  0  0
  -30.0245  -23.4050  -18.0092 H   0  0  0  0  0  0
  -28.7419  -24.5562  -17.4769 H   0  0  0  0  0  0
  -33.7078  -22.2988  -26.3976 H   0  0  0  0  0  0
  -34.6838  -24.3692  -26.5559 H   0  0  0  0  0  0
  -33.7380  -25.7842  -26.1681 H   0  0  0  0  0  0
  -34.7289  -23.7076  -29.1354 H   0  0  0  0  0  0
  -33.6213  -24.3941  -31.3561 H   0  0  0  0  0  0
  -31.5823  -26.0536  -30.9822 H   0  0  0  0  0  0
  1  2  1  0  0  0
  1 29  1  0  0  0
  1 30  1  0  0  0
  1 31  1  0  0  0
  2  3  1  0  0  0
  3  6  1  0  0  0
  3  4  1  0  0  0
  3 20  1  0  0  0
  4 14  1  0  0  0
  4  5  1  0  0  0
  4 32  1  0  0  0
  5  6  1  0  0  0
  5  8  1  0  0  0
  6  7  2  0  0  0
  8  9  1  0  0  0
  8 12  2  0  0  0
  9 10  1  0  0  0
  9 11  2  0  0  0
 12 13  1  0  0  0
 12 15  1  0  0  0
 13 14  1  0  0  0
 13 33  1  0  0  0
 13 34  1  0  0  0
 15 16  1  0  0  0
 15 35  1  0  0  0
 15 36  1  0  0  0
 16 17  1  0  0  0
 17 18  1  0  0  0
 17 19  2  0  0  0
 18 37  1  0  0  0
 18 38  1  0  0  0
 20 21  1  0  0  0
 20 39  1  0  0  0
 21 22  1  0  0  0
 21 28  2  0  0  0
 22 23  1  0  0  0
 22 40  1  0  0  0
 22 41  1  0  0  0
 23 27  1  0  0  0
 23 24  2  0  0  0
 24 25  1  0  0  0
 24 42  1  0  0  0
 25 26  2  0  0  0
 25 43  1  0  0  0
 26 27  1  0  0  0
 26 44  1  0  0  0
M  CHG  1  10  -1
M  END
> <s_m_entry_id>
27497

> <s_m_entry_name>
data_maestro.4

> <s_m_Source_Path>
C:\Users\olshana1\Git\GramNeg-Accumulation\Gram Negative Permeation - OmpF

> <s_m_Source_File>
data_maestro.csv

> <i_m_Source_File_Index>
4

> <s_m_job_name>
glide-dock_Nicaido_neutral

> <s_i_glide_gridfile>
3POX-grid

> <i_i_glide_lignum>
4

> <i_i_glide_rotatable_bonds>
9

> <r_i_docking_score>
-4.83768948997246

> <r_i_glide_ligand_efficiency>
-0.172774624641874

> <r_i_glide_ligand_efficiency_sa>
-0.524645519224728

> <r_i_glide_ligand_efficiency_ln>
-1.11668077502112

> <r_i_glide_gscore>
-4.83768948997246

> <r_i_glide_lipo>
-0.214721488700935

> <r_i_glide_hbond>
-1.01047825350132

> <r_i_glide_metal>
0

> <r_i_glide_rewards>
-0.466096764115547

> <r_i_glide_evdw>
-25.0186386108398

> <r_i_glide_ecoul>
-12.5577945709229

> <r_i_glide_erotb>
0.545654768997296

> <r_i_glide_esite>
-0.557446636471534

> <r_i_glide_emodel>
-56.4912011597268

> <r_i_glide_energy>
-37.5764331817627

> <r_i_glide_einternal>
14.1310119628906

> <i_i_glide_confnum>
36

> <i_i_glide_posenum>
217

> <r_i_glide_eff_state_penalty>
0

> <r_glide_res:A132_vdw>
-2.01697438328648

> <r_glide_res:A132_coul>
-40.9226467455468

> <r_glide_res:A132_hbond>
-0.133950128418778

> <r_glide_res:A132_dist>
2.16512467895306

> <r_glide_res:A132_Eint>
-43.073571257252

> <r_glide_res:A117_vdw>
-0.822746311518029

> <r_glide_res:A117_coul>
26.8854005395045

> <r_glide_res:A117_hbond>
0

> <r_glide_res:A117_dist>
4.60079901811739

> <r_glide_res:A117_Eint>
26.0626542279865

> <r_glide_res:A113_vdw>
-1.38141607419128

> <r_glide_res:A113_coul>
15.2274627342079

> <r_glide_res:A113_hbond>
-0.16

> <r_glide_res:A113_dist>
1.86772965188241

> <r_glide_res:A113_Eint>
13.6860466600167

> <r_glide_res:A82_vdw>
-0.470984997716346

> <r_glide_res:A82_coul>
-54.5462983976992

> <r_glide_res:A82_hbond>
-0.239135265035402

> <r_glide_res:A82_dist>
1.75995765621183

> <r_glide_res:A82_Eint>
-55.2564186604509

> <r_glide_res:A42_vdw>
-1.56678245594666

> <r_glide_res:A42_coul>
-55.1638050993231

> <r_glide_res:A42_hbond>
-0.317392860047138

> <r_glide_res:A42_dist>
1.80041688569728

> <r_glide_res:A42_Eint>
-57.0479804153169

> <r_glide_res:A16_vdw>
-4.03447651557204

> <r_glide_res:A16_coul>
-34.657717763661

> <r_glide_res:A16_hbond>
-0.16

> <r_glide_res:A16_dist>
1.94353325297796

> <r_glide_res:A16_Eint>
-38.852194279233

> <s_m_source_file>
ligprep_Nicaido_neutral.maegz

> <i_m_source_file_index>
4

> <i_lp_mmshare_version>
58128

> <i_f3d_flags>
0

> <s_lp_Force_Field>
S-OPLS

> <r_lp_Energy>
27.517474

> <b_lp_Chiralities_Consistent>
1

> <s_lp_Variant>
Cefoxitin-1

> <s_epik_input>
czFbY0hdW2NIXVtjSF1jMVtDSDJdQyg9TylbTkhdW0NAXTIoT1tDSDNdKUMoPU8pTihbQ0BIXTIzKUMoQyg9TylbT0hdKT1DKFtDSDJdUzMpW0NIMl1PQyg9TylbTkgyXQ==

> <s_epik_cmdline>
J2VwaWtfcHl0aG9uJywgJy1waHQnLCAnMC4wJywgJy1waCcsICc3LjQnLCAnLW50JywgJy1tYScsICc1MDAnLCAnLWltYWUnLCAnPGluZmlsZS5tYWU+JywgJy1vbWFlJywgJzxvdXRmaWxlLm1hZT4n

> <r_lp_tautomer_probability>
1

> <r_epik_Ionization_Penalty>
  0.0000

> <r_epik_Ionization_Penalty_Charging>
  0.0000

> <r_epik_Ionization_Penalty_Neutral>
  0.0000

> <r_epik_State_Penalty>
  0.0000

> <r_epik_Charging_Adjusted_Penalty>
8.89144247208744e-06

> <i_epik_Tot_Q>
-1

> <i_epik_Tot_abs_Q>
1

> <s_epik_Chemistry_Notes>
This compound has an ester and may undergo hydrolysis at high or low pH. This compound contains an acetal/aminal-like group ( X-CH(R)-Y where X, Y are N, S, or O) that may be acid/base labile, releasing an aldehyde.

> <s_m_subgroup_title>
glide-dock_Nicaido_neutral_pv1

> <s_m_subgroupid>
glide-dock_Nicaido_neutral_pv1

> <b_m_subgroup_collapsed>
0

$$$$
LY097964
                    3D
 Schrodinger Suite 2022-2.
 40 42  0  0  1  0            999 V2000
  -31.9597  -23.5288  -26.9499 C   0  0  0  0  0  0
  -30.9040  -22.7470  -26.4131 O   0  0  0  0  0  0
  -31.4904  -21.7106  -25.6758 N   0  0  0  0  0  0
  -30.7439  -21.1362  -24.8053 C   0  0  0  0  0  0
  -31.3756  -20.0497  -23.9948 C   0  0  0  0  0  0
  -32.2759  -19.1807  -24.5744 C   0  0  0  0  0  0
  -32.9508  -18.0590  -23.4288 S   0  0  0  0  0  0
  -31.9530  -18.7930  -22.1847 C   0  0  0  0  0  0
  -31.9658  -18.3496  -20.8785 N   0  0  0  0  0  0
  -31.2340  -19.8276  -22.6165 N   0  0  0  0  0  0
  -29.2543  -21.4476  -24.5338 C   0  0  0  0  0  0
  -28.7054  -20.7926  -23.4933 N   0  0  0  0  0  0
  -27.3444  -20.9910  -22.9884 C   0  0  1  0  0  0
  -27.1843  -20.5308  -21.5234 C   0  0  1  0  0  0
  -26.6749  -21.8593  -21.2402 N   0  0  0  0  0  0
  -27.0902  -22.4133  -22.4318 C   0  0  0  0  0  0
  -27.1878  -23.5604  -22.8151 O   0  0  0  0  0  0
  -26.1938  -22.2474  -19.9754 C   0  0  0  0  0  0
  -26.2028  -23.7821  -19.7207 C   0  0  0  0  0  0
  -27.3145  -24.3454  -19.8187 O   0  5  0  0  0  0
  -25.0907  -24.3495  -19.6205 O   0  0  0  0  0  0
  -25.8127  -21.3447  -19.0354 C   0  0  0  0  0  0
  -25.8521  -19.8411  -19.2719 C   0  0  0  0  0  0
  -25.9008  -19.3544  -21.0123 S   0  0  0  0  0  0
  -25.3673  -21.7049  -17.6239 C   0  0  0  0  0  0
  -28.6089  -22.2515  -25.2136 O   0  0  0  0  0  0
  -31.5598  -24.3450  -27.5530 H   0  0  0  0  0  0
  -32.5602  -23.9738  -26.1545 H   0  0  0  0  0  0
  -32.6180  -22.9369  -27.5868 H   0  0  0  0  0  0
  -32.5930  -19.1371  -25.6058 H   0  0  0  0  0  0
  -31.4327  -18.8419  -20.1597 H   0  0  0  0  0  0
  -32.2530  -17.4039  -20.6682 H   0  0  0  0  0  0
  -29.3034  -20.1667  -22.9626 H   0  0  0  0  0  0
  -26.5639  -20.5975  -23.6421 H   0  0  0  0  0  0
  -28.1270  -20.3490  -21.0016 H   0  0  0  0  0  0
  -26.7683  -19.4901  -18.8139 H   0  0  0  0  0  0
  -25.0158  -19.3410  -18.7854 H   0  0  0  0  0  0
  -25.9592  -21.1438  -16.8996 H   0  0  0  0  0  0
  -25.4774  -22.7617  -17.3805 H   0  0  0  0  0  0
  -24.3209  -21.4333  -17.4780 H   0  0  0  0  0  0
  1  2  1  0  0  0
  1 27  1  0  0  0
  1 28  1  0  0  0
  1 29  1  0  0  0
  2  3  1  0  0  0
  3  4  2  3  0  0
  4  5  1  0  0  0
  4 11  1  0  0  0
  5 10  1  0  0  0
  5  6  2  0  0  0
  6  7  1  0  0  0
  6 30  1  0  0  0
  7  8  1  0  0  0
  8  9  1  0  0  0
  8 10  2  0  0  0
  9 31  1  0  0  0
  9 32  1  0  0  0
 11 12  1  0  0  0
 11 26  2  0  0  0
 12 13  1  0  0  0
 12 33  1  0  0  0
 13 16  1  0  0  0
 13 14  1  0  0  0
 13 34  1  0  0  0
 14 24  1  0  0  0
 14 15  1  0  0  0
 14 35  1  0  0  0
 15 16  1  0  0  0
 15 18  1  0  0  0
 16 17  2  0  0  0
 18 19  1  0  0  0
 18 22  2  0  0  0
 19 20  1  0  0  0
 19 21  2  0  0  0
 22 23  1  0  0  0
 22 25  1  0  0  0
 23 24  1  0  0  0
 23 36  1  0  0  0
 23 37  1  0  0  0
 25 38  1  0  0  0
 25 39  1  0  0  0
 25 40  1  0  0  0
M  CHG  1  20  -1
M  END
> <s_m_entry_id>
27498

> <s_m_entry_name>
data_maestro.7

> <s_m_Source_Path>
C:\Users\olshana1\Git\GramNeg-Accumulation\Gram Negative Permeation - OmpF

> <s_m_Source_File>
data_maestro.csv

> <i_m_Source_File_Index>
7

> <s_m_job_name>
glide-dock_Nicaido_neutral

> <s_i_glide_gridfile>
3POX-grid

> <i_i_glide_lignum>
10

> <i_i_glide_rotatable_bonds>
6

> <r_i_docking_score>
-4.8235524745777

> <r_i_glide_ligand_efficiency>
-0.185521249022219

> <r_i_glide_ligand_efficiency_sa>
-0.54960597023746

> <r_i_glide_ligand_efficiency_ln>
-1.13279547128797

> <r_i_glide_gscore>
-4.8235524745777

> <r_i_glide_lipo>
0

> <r_i_glide_hbond>
-1.05292642421567

> <r_i_glide_metal>
0

> <r_i_glide_rewards>
-0.668148188726172

> <r_i_glide_evdw>
-21.5918216705322

> <r_i_glide_ecoul>
-13.3479499816895

> <r_i_glide_erotb>
0.622478626066327

> <r_i_glide_esite>
-0.643172906922155

> <r_i_glide_emodel>
-57.0474122388218

> <r_i_glide_energy>
-34.9397716522217

> <r_i_glide_einternal>
1.88844799995422

> <i_i_glide_confnum>
5

> <i_i_glide_posenum>
340

> <r_i_glide_eff_state_penalty>
0

> <r_glide_res:A132_vdw>
1.67415129219413

> <r_glide_res:A132_coul>
-56.3837147122368

> <r_glide_res:A132_hbond>
-0.452256686151489

> <r_glide_res:A132_dist>
1.76954254949727

> <r_glide_res:A132_Eint>
-55.1618201061941

> <r_glide_res:A117_vdw>
-2.62932754643707

> <r_glide_res:A117_coul>
17.5406770264648

> <r_glide_res:A117_hbond>
0

> <r_glide_res:A117_dist>
3.32306257937177

> <r_glide_res:A117_Eint>
14.9113494800278

> <r_glide_res:A113_vdw>
-2.01177993843563

> <r_glide_res:A113_coul>
21.250611373438

> <r_glide_res:A113_hbond>
-0.16

> <r_glide_res:A113_dist>
1.90540201017883

> <r_glide_res:A113_Eint>
19.0788314350024

> <r_glide_res:A82_vdw>
-1.15879752883478

> <r_glide_res:A82_coul>
-39.6843982187855

> <r_glide_res:A82_hbond>
-0.16

> <r_glide_res:A82_dist>
1.89305084837554

> <r_glide_res:A82_Eint>
-41.0031957476202

> <r_glide_res:A42_vdw>
-1.14060957422807

> <r_glide_res:A42_coul>
-35.6948028149322

> <r_glide_res:A42_hbond>
-0.280669738064186

> <r_glide_res:A42_dist>
2.03857646556647

> <r_glide_res:A42_Eint>
-37.1160821272245

> <r_glide_res:A16_vdw>
-1.85024274389223

> <r_glide_res:A16_coul>
-21.0086349834694

> <r_glide_res:A16_hbond>
0

> <r_glide_res:A16_dist>
2.38139330163417

> <r_glide_res:A16_Eint>
-22.8588777273616

> <s_m_source_file>
ligprep_Nicaido_neutral.maegz

> <i_m_source_file_index>
7

> <i_lp_mmshare_version>
58128

> <i_f3d_flags>
0

> <s_lp_Force_Field>
S-OPLS

> <r_lp_Energy>
53.916069

> <b_lp_Chiralities_Consistent>
1

> <s_lp_Variant>
LY097964-2

> <s_epik_input>
W05IMl1jKG4xKXNbY0hdYzEvQyg9TlxPW0NIM10pQyg9TylbTkhdW0NAQEhdMkMoPU8pTihbQ0BIXTIzKUMoQyg9TylbT0hdKT1DKFtDSDJdUzMpW0NIM10=

> <s_epik_cmdline>
J2VwaWtfcHl0aG9uJywgJy1waHQnLCAnMC4wJywgJy1waCcsICc3LjQnLCAnLW50JywgJy1tYScsICc1MDAnLCAnLWltYWUnLCAnPGluZmlsZS5tYWU+JywgJy1vbWFlJywgJzxvdXRmaWxlLm1hZT4n

> <r_lp_tautomer_probability>
1

> <r_epik_Ionization_Penalty>
  0.0005

> <r_epik_Ionization_Penalty_Charging>
  0.0000

> <r_epik_Ionization_Penalty_Neutral>
  0.0005

> <r_epik_State_Penalty>
  0.0000

> <r_epik_Charging_Adjusted_Penalty>
1.64985111359435e-05

> <i_epik_Tot_Q>
-1

> <i_epik_Tot_abs_Q>
1

> <s_epik_Chemistry_Notes>
This compound has an imine and may undergo hydrolysis. This compound contains an acetal/aminal-like group ( X-CH(R)-Y where X, Y are N, S, or O) that may be acid/base labile, releasing an aldehyde.

> <s_m_subgroup_title>
glide-dock_Nicaido_neutral_pv1

> <s_m_subgroupid>
glide-dock_Nicaido_neutral_pv1

> <b_m_subgroup_collapsed>
0

$$$$
Nocardicin B
                    3D
 Schrodinger Suite 2022-2.
 59 61  0  0  1  0            999 V2000
  -38.8317  -31.5037  -22.0915 O   0  0  0  0  0  0
  -37.6964  -31.5316  -21.6681 C   0  0  0  0  0  0
  -36.2807  -31.4611  -22.2646 C   0  0  2  0  0  0
  -35.8056  -31.4937  -20.8145 C   0  0  0  0  0  0
  -37.2018  -31.6859  -20.3977 N   0  0  0  0  0  0
  -37.8670  -32.0473  -19.1462 C   0  0  2  0  0  0
  -37.9967  -30.8816  -18.2056 C   0  0  0  0  0  0
  -39.2009  -30.7098  -17.4817 C   0  0  0  0  0  0
  -39.3997  -29.6161  -16.6174 C   0  0  0  0  0  0
  -38.3851  -28.6567  -16.4559 C   0  0  0  0  0  0
  -37.1677  -28.8155  -17.1396 C   0  0  0  0  0  0
  -36.9783  -29.9173  -17.9968 C   0  0  0  0  0  0
  -38.5806  -27.5756  -15.6475 O   0  0  0  0  0  0
  -37.1432  -33.1929  -18.4112 C   0  0  0  0  0  0
  -37.5688  -34.3487  -18.6322 O   0  5  0  0  0  0
  -36.1984  -32.9333  -17.6271 O   0  0  0  0  0  0
  -35.9823  -30.1988  -22.9417 N   0  0  0  0  0  0
  -36.4417  -29.9273  -24.1738 C   0  0  0  0  0  0
  -36.0660  -28.5551  -24.7607 C   0  0  0  0  0  0
  -35.2539  -27.6417  -23.9002 C   0  0  0  0  0  0
  -34.0083  -27.1622  -24.3671 C   0  0  0  0  0  0
  -33.2779  -26.2018  -23.6358 C   0  0  0  0  0  0
  -33.7694  -25.7044  -22.4035 C   0  0  0  0  0  0
  -34.9995  -26.2019  -21.9268 C   0  0  0  0  0  0
  -35.7387  -27.1489  -22.6662 C   0  0  0  0  0  0
  -33.1207  -24.7638  -21.6258 O   0  0  0  0  0  0
  -31.8574  -24.2676  -22.0584 C   0  0  0  0  0  0
  -31.2983  -23.2766  -21.0134 C   0  0  0  0  0  0
  -29.9905  -22.5507  -21.4303 C   0  0  2  0  0  0
  -28.8416  -23.5501  -21.6465 C   0  0  0  0  0  0
  -28.1971  -23.9495  -20.6500 O   0  5  0  0  0  0
  -28.6336  -23.9495  -22.8132 O   0  0  0  0  0  0
  -29.5689  -21.5651  -20.4134 N   0  3  0  0  0  0
  -36.3732  -28.1386  -25.9348 N   0  0  0  0  0  0
  -37.1699  -29.0814  -26.6706 O   0  0  0  0  0  0
  -37.1206  -30.7364  -24.8135 O   0  0  0  0  0  0
  -35.9773  -32.3504  -22.8211 H   0  0  0  0  0  0
  -35.1720  -32.3497  -20.5905 H   0  0  0  0  0  0
  -35.3580  -30.5580  -20.4797 H   0  0  0  0  0  0
  -38.8614  -32.4143  -19.4074 H   0  0  0  0  0  0
  -39.9978  -31.4292  -17.5980 H   0  0  0  0  0  0
  -40.3374  -29.5140  -16.0924 H   0  0  0  0  0  0
  -36.3768  -28.0928  -17.0074 H   0  0  0  0  0  0
  -36.0262  -30.0193  -18.4897 H   0  0  0  0  0  0
  -39.3908  -27.6137  -15.1633 H   0  0  0  0  0  0
  -35.4407  -29.5058  -22.4466 H   0  0  0  0  0  0
  -33.6190  -27.5126  -25.3145 H   0  0  0  0  0  0
  -32.3466  -25.8503  -24.0504 H   0  0  0  0  0  0
  -35.3907  -25.8345  -20.9894 H   0  0  0  0  0  0
  -36.6980  -27.4744  -22.2890 H   0  0  0  0  0  0
  -31.9688  -23.7632  -23.0193 H   0  0  0  0  0  0
  -31.1663  -25.1009  -22.1899 H   0  0  0  0  0  0
  -31.1466  -23.8034  -20.0695 H   0  0  0  0  0  0
  -32.0625  -22.5251  -20.8083 H   0  0  0  0  0  0
  -30.1659  -21.9999  -22.3553 H   0  0  0  0  0  0
  -28.7569  -21.0579  -20.7295 H   0  0  0  0  0  0
  -30.3140  -20.9160  -20.1802 H   0  0  0  0  0  0
  -37.2796  -29.7819  -26.0269 H   0  0  0  0  0  0
  -29.3374  -22.0666  -19.5668 H   0  0  0  0  0  0
  1  2  2  0  0  0
  2  5  1  0  0  0
  2  3  1  0  0  0
  3  4  1  0  0  0
  3 17  1  0  0  0
  3 37  1  0  0  0
  4  5  1  0  0  0
  4 38  1  0  0  0
  4 39  1  0  0  0
  5  6  1  0  0  0
  6  7  1  0  0  0
  6 14  1  0  0  0
  6 40  1  0  0  0
  7 12  1  0  0  0
  7  8  2  0  0  0
  8  9  1  0  0  0
  8 41  1  0  0  0
  9 10  2  0  0  0
  9 42  1  0  0  0
 10 11  1  0  0  0
 10 13  1  0  0  0
 11 12  2  0  0  0
 11 43  1  0  0  0
 12 44  1  0  0  0
 13 45  1  0  0  0
 14 15  1  0  0  0
 14 16  2  0  0  0
 17 18  1  0  0  0
 17 46  1  0  0  0
 18 19  1  0  0  0
 18 36  2  0  0  0
 19 20  1  0  0  0
 19 34  2  3  0  0
 20 25  1  0  0  0
 20 21  2  0  0  0
 21 22  1  0  0  0
 21 47  1  0  0  0
 22 23  2  0  0  0
 22 48  1  0  0  0
 23 24  1  0  0  0
 23 26  1  0  0  0
 24 25  2  0  0  0
 24 49  1  0  0  0
 25 50  1  0  0  0
 26 27  1  0  0  0
 27 28  1  0  0  0
 27 51  1  0  0  0
 27 52  1  0  0  0
 28 29  1  0  0  0
 28 53  1  0  0  0
 28 54  1  0  0  0
 29 30  1  0  0  0
 29 33  1  0  0  0
 29 55  1  0  0  0
 30 31  1  0  0  0
 30 32  2  0  0  0
 33 56  1  0  0  0
 33 57  1  0  0  0
 33 59  1  0  0  0
 34 35  1  0  0  0
 35 58  1  0  0  0
M  CHG  3  15  -1  31  -1  33   1
M  END
> <s_m_entry_id>
27499

> <s_m_entry_name>
data_maestro.29

> <s_m_Source_Path>
C:\Users\olshana1\Git\GramNeg-Accumulation\Gram Negative Permeation - OmpF

> <s_m_Source_File>
data_maestro.csv

> <i_m_Source_File_Index>
29

> <s_m_job_name>
glide-dock_Nicaido_neutral

> <s_i_glide_gridfile>
3POX-grid

> <i_i_glide_lignum>
37

> <i_i_glide_rotatable_bonds>
14

> <r_i_docking_score>
-4.82124537614599

> <r_i_glide_ligand_efficiency>
-0.133923482670722

> <r_i_glide_ligand_efficiency_sa>
-0.442205596169107

> <r_i_glide_ligand_efficiency_ln>
-1.05186548607781

> <r_i_glide_gscore>
-4.82124537614599

> <r_i_glide_lipo>
-0.537806601403428

> <r_i_glide_hbond>
-1.1163658145076

> <r_i_glide_metal>
0

> <r_i_glide_rewards>
-0.297026092014264

> <r_i_glide_evdw>
-28.9760456085205

> <r_i_glide_ecoul>
-13.4252767562866

> <r_i_glide_erotb>
0.900147327125679

> <r_i_glide_esite>
-0.307600401477363

> <r_i_glide_emodel>
-67.3117784053131

> <r_i_glide_energy>
-42.4013223648071

> <r_i_glide_einternal>
8.13151264190674

> <i_i_glide_confnum>
627

> <i_i_glide_posenum>
179

> <r_i_glide_eff_state_penalty>
0

> <r_glide_res:A132_vdw>
1.74934040719917

> <r_glide_res:A132_coul>
-33.6400195220767

> <r_glide_res:A132_hbond>
-0.2

> <r_glide_res:A132_dist>
1.75556670198496

> <r_glide_res:A132_Eint>
-32.0906791148775

> <r_glide_res:A117_vdw>
-0.135760087038008

> <r_glide_res:A117_coul>
5.61301025808421

> <r_glide_res:A117_hbond>
0

> <r_glide_res:A117_dist>
4.91328465180121

> <r_glide_res:A117_Eint>
5.47725017104621

> <r_glide_res:A113_vdw>
1.25046125591842

> <r_glide_res:A113_coul>
-19.7186065249012

> <r_glide_res:A113_hbond>
-0.16103092141671

> <r_glide_res:A113_dist>
1.9300703028635

> <r_glide_res:A113_Eint>
-18.6291761903995

> <r_glide_res:A82_vdw>
-0.152960879500897

> <r_glide_res:A82_coul>
-31.6744897826889

> <r_glide_res:A82_hbond>
-0.330852998589221

> <r_glide_res:A82_dist>
2.05248430097212

> <r_glide_res:A82_Eint>
-32.158303660779

> <r_glide_res:A42_vdw>
-0.520299717172509

> <r_glide_res:A42_coul>
-17.2714215982173

> <r_glide_res:A42_hbond>
0

> <r_glide_res:A42_dist>
3.75715107618713

> <r_glide_res:A42_Eint>
-17.7917213153898

> <r_glide_res:A16_vdw>
-0.111673174013993

> <r_glide_res:A16_coul>
-10.5844027461416

> <r_glide_res:A16_hbond>
0

> <r_glide_res:A16_dist>
5.82635506207362

> <r_glide_res:A16_Eint>
-10.6960759201556

> <s_m_source_file>
ligprep_Nicaido_neutral.maegz

> <i_m_source_file_index>
29

> <i_lp_mmshare_version>
58128

> <i_f3d_flags>
0

> <s_lp_Force_Field>
S-OPLS

> <r_lp_Energy>
65.715273

> <b_lp_Chiralities_Consistent>
1

> <s_lp_Variant>
Nocardicin B-2

> <s_epik_input>
W2NIXTFbY0hdYyhbT0hdKVtjSF1bY0hdYzFbQ0BIXShDKD1PKVtPSF0pTjJbQ0gyXVtDQEBIXShDMj1PKVtOSF1DKD1PKS9DKD1OL1tPSF0pYzNbY0hdW2NIXWMoW2NIXVtjSF0zKU9bQ0gyXVtDSDJdW0NAQEhdKFtOSDJdKUMoPU8pW09IXQ==

> <s_epik_cmdline>
J2VwaWtfcHl0aG9uJywgJy1waHQnLCAnMC4wJywgJy1waCcsICc3LjQnLCAnLW50JywgJy1tYScsICc1MDAnLCAnLWltYWUnLCAnPGluZmlsZS5tYWU+JywgJy1vbWFlJywgJzxvdXRmaWxlLm1hZT4n

> <r_lp_tautomer_probability>
1

> <r_epik_Ionization_Penalty>
  0.0116

> <r_epik_Ionization_Penalty_Charging>
  0.0086

> <r_epik_Ionization_Penalty_Neutral>
  0.0030

> <r_epik_State_Penalty>
  0.0000

> <r_epik_Charging_Adjusted_Penalty>
0.0085560600321308

> <i_epik_Tot_Q>
-1

> <i_epik_Tot_abs_Q>
3

> <s_epik_Chemistry_Notes>
This compound has an imine and may undergo hydrolysis.

> <s_m_subgroup_title>
glide-dock_Nicaido_neutral_pv1

> <s_m_subgroupid>
glide-dock_Nicaido_neutral_pv1

> <b_m_subgroup_collapsed>
0

$$$$
Ceftizoxime
                    3D
 Schrodinger Suite 2022-2.
 37 39  0  0  1  0            999 V2000
  -30.7142  -17.1773  -28.2562 C   0  0  0  0  0  0
  -30.5741  -18.3748  -27.5198 O   0  0  0  0  0  0
  -31.5259  -18.3583  -26.4867 N   0  0  0  0  0  0
  -31.1228  -18.8882  -25.3949 C   0  0  0  0  0  0
  -32.0319  -18.9528  -24.2110 C   0  0  0  0  0  0
  -33.0235  -18.0172  -24.0104 C   0  0  0  0  0  0
  -33.9677  -18.3495  -22.5811 S   0  0  0  0  0  0
  -32.9726  -19.7653  -22.3002 C   0  0  0  0  0  0
  -33.1693  -20.5936  -21.2136 N   0  0  0  0  0  0
  -32.0346  -19.9545  -23.2260 N   0  0  0  0  0  0
  -29.7461  -19.5050  -25.1749 C   0  0  0  0  0  0
  -29.2208  -19.2055  -23.9739 N   0  0  0  0  0  0
  -27.9829  -19.7011  -23.3724 C   0  0  1  0  0  0
  -28.2343  -20.0484  -21.8887 C   0  0  1  0  0  0
  -27.5124  -21.2819  -22.1485 N   0  0  0  0  0  0
  -27.6693  -21.2193  -23.5238 C   0  0  0  0  0  0
  -27.5686  -22.0422  -24.4127 O   0  0  0  0  0  0
  -27.0833  -22.1395  -21.1203 C   0  0  0  0  0  0
  -26.5634  -23.5494  -21.5082 C   0  0  0  0  0  0
  -25.6218  -23.9896  -20.8148 O   0  5  0  0  0  0
  -27.1691  -24.1713  -22.4124 O   0  0  0  0  0  0
  -27.1178  -21.7875  -19.8153 C   0  0  0  0  0  0
  -27.5724  -20.4496  -19.2708 C   0  0  0  0  0  0
  -27.4365  -19.1497  -20.5161 S   0  0  0  0  0  0
  -29.2096  -20.2285  -26.0157 O   0  0  0  0  0  0
  -29.9704  -17.1505  -29.0528 H   0  0  0  0  0  0
  -31.7034  -17.0935  -28.7088 H   0  0  0  0  0  0
  -30.5437  -16.3130  -27.6134 H   0  0  0  0  0  0
  -33.2487  -17.1457  -24.6075 H   0  0  0  0  0  0
  -32.3753  -21.1379  -20.9034 H   0  0  0  0  0  0
  -33.7161  -20.2158  -20.4441 H   0  0  0  0  0  0
  -29.7578  -18.5873  -23.3823 H   0  0  0  0  0  0
  -27.1256  -19.0425  -23.5197 H   0  0  0  0  0  0
  -29.2804  -20.2619  -21.6514 H   0  0  0  0  0  0
  -26.8088  -22.4992  -19.0629 H   0  0  0  0  0  0
  -28.6029  -20.5314  -18.9241 H   0  0  0  0  0  0
  -26.9554  -20.1790  -18.4139 H   0  0  0  0  0  0
  1  2  1  0  0  0
  1 26  1  0  0  0
  1 27  1  0  0  0
  1 28  1  0  0  0
  2  3  1  0  0  0
  3  4  2  3  0  0
  4  5  1  0  0  0
  4 11  1  0  0  0
  5 10  1  0  0  0
  5  6  2  0  0  0
  6  7  1  0  0  0
  6 29  1  0  0  0
  7  8  1  0  0  0
  8  9  1  0  0  0
  8 10  2  0  0  0
  9 30  1  0  0  0
  9 31  1  0  0  0
 11 12  1  0  0  0
 11 25  2  0  0  0
 12 13  1  0  0  0
 12 32  1  0  0  0
 13 16  1  0  0  0
 13 14  1  0  0  0
 13 33  1  0  0  0
 14 24  1  0  0  0
 14 15  1  0  0  0
 14 34  1  0  0  0
 15 16  1  0  0  0
 15 18  1  0  0  0
 16 17  2  0  0  0
 18 19  1  0  0  0
 18 22  2  0  0  0
 19 20  1  0  0  0
 19 21  2  0  0  0
 22 23  1  0  0  0
 22 35  1  0  0  0
 23 24  1  0  0  0
 23 36  1  0  0  0
 23 37  1  0  0  0
M  CHG  1  20  -1
M  END
> <s_m_entry_id>
27500

> <s_m_entry_name>
data_maestro.5

> <s_m_Source_Path>
C:\Users\olshana1\Git\GramNeg-Accumulation\Gram Negative Permeation - OmpF

> <s_m_Source_File>
data_maestro.csv

> <i_m_Source_File_Index>
5

> <s_m_job_name>
glide-dock_Nicaido_neutral

> <s_i_glide_gridfile>
3POX-grid

> <i_i_glide_lignum>
6

> <i_i_glide_rotatable_bonds>
6

> <r_i_docking_score>
-4.81773794351112

> <r_i_glide_ligand_efficiency>
-0.192709517740445

> <r_i_glide_ligand_efficiency_sa>
-0.56348604759091

> <r_i_glide_ligand_efficiency_ln>
-1.14194826856788

> <r_i_glide_gscore>
-4.81773794351112

> <r_i_glide_lipo>
-0.0401079546555128

> <r_i_glide_hbond>
-0.877323040055702

> <r_i_glide_metal>
0

> <r_i_glide_rewards>
-0.444271603362119

> <r_i_glide_evdw>
-26.9131450653076

> <r_i_glide_ecoul>
-14.4323234558105

> <r_i_glide_erotb>
0.664075194683877

> <r_i_glide_esite>
-0.609604768484701

> <r_i_glide_emodel>
-61.8486183158128

> <r_i_glide_energy>
-41.3454685211182

> <r_i_glide_einternal>
3.38443517684937

> <i_i_glide_confnum>
5

> <i_i_glide_posenum>
389

> <r_i_glide_eff_state_penalty>
0

> <r_glide_res:A132_vdw>
0.659606343207256

> <r_glide_res:A132_coul>
-47.2450525876992

> <r_glide_res:A132_hbond>
-0.203901010753692

> <r_glide_res:A132_dist>
1.76725447616484

> <r_glide_res:A132_Eint>
-46.7893472552457

> <r_glide_res:A117_vdw>
-3.87746709083893

> <r_glide_res:A117_coul>
20.6199848660606

> <r_glide_res:A117_hbond>
0

> <r_glide_res:A117_dist>
2.48858041019058

> <r_glide_res:A117_Eint>
16.7425177752217

> <r_glide_res:A113_vdw>
-3.52375425715303

> <r_glide_res:A113_coul>
15.8426789940124

> <r_glide_res:A113_hbond>
-0.32

> <r_glide_res:A113_dist>
1.90972160588526

> <r_glide_res:A113_Eint>
11.9989247368594

> <r_glide_res:A82_vdw>
1.56043977281043

> <r_glide_res:A82_coul>
-49.9425944287464

> <r_glide_res:A82_hbond>
-0.2

> <r_glide_res:A82_dist>
1.64616764722726

> <r_glide_res:A82_Eint>
-48.582154655936

> <r_glide_res:A42_vdw>
-1.37520451538427

> <r_glide_res:A42_coul>
-39.4559607881784

> <r_glide_res:A42_hbond>
-0.15342202930201

> <r_glide_res:A42_dist>
2.11644492674497

> <r_glide_res:A42_Eint>
-40.9845873328646

> <r_glide_res:A16_vdw>
-1.43626581302312

> <r_glide_res:A16_coul>
-32.0980008543919

> <r_glide_res:A16_hbond>
0

> <r_glide_res:A16_dist>
2.53496470067425

> <r_glide_res:A16_Eint>
-33.534266667415

> <s_m_source_file>
ligprep_Nicaido_neutral.maegz

> <i_m_source_file_index>
5

> <i_lp_mmshare_version>
58128

> <i_f3d_flags>
0

> <s_lp_Force_Field>
S-OPLS

> <r_lp_Energy>
52.500132

> <b_lp_Chiralities_Consistent>
1

> <s_lp_Variant>
Ceftizoxime-2

> <s_epik_input>
W05IMl1jKG4xKXNbY0hdYzEvQyg9TlxPW0NIM10pQyg9TylbTkhdW0NAQEhdMkMoPU8pTihbQ0BIXTIzKUMoQyg9TylbT0hdKT1bQ0hdW0NIMl1TMw==

> <s_epik_cmdline>
J2VwaWtfcHl0aG9uJywgJy1waHQnLCAnMC4wJywgJy1waCcsICc3LjQnLCAnLW50JywgJy1tYScsICc1MDAnLCAnLWltYWUnLCAnPGluZmlsZS5tYWU+JywgJy1vbWFlJywgJzxvdXRmaWxlLm1hZT4n

> <r_lp_tautomer_probability>
1

> <r_epik_Ionization_Penalty>
  0.0005

> <r_epik_Ionization_Penalty_Charging>
  0.0000

> <r_epik_Ionization_Penalty_Neutral>
  0.0005

> <r_epik_State_Penalty>
  0.0000

> <r_epik_Charging_Adjusted_Penalty>
4.86746471452517e-05

> <i_epik_Tot_Q>
-1

> <i_epik_Tot_abs_Q>
1

> <s_epik_Chemistry_Notes>
This compound has an imine and may undergo hydrolysis. This compound contains an acetal/aminal-like group ( X-CH(R)-Y where X, Y are N, S, or O) that may be acid/base labile, releasing an aldehyde.

> <s_m_subgroup_title>
glide-dock_Nicaido_neutral_pv1

> <s_m_subgroupid>
glide-dock_Nicaido_neutral_pv1

> <b_m_subgroup_collapsed>
0

$$$$
Piperacillin
                    3D
 Schrodinger Suite 2022-2.
 62 65  0  0  1  0            999 V2000
  -32.5665  -17.6286  -24.7052 C   0  0  0  0  0  0
  -31.8640  -17.9502  -26.0306 C   0  0  0  0  0  0
  -30.6560  -18.7519  -25.8061 N   0  0  0  0  0  0
  -29.3911  -18.0302  -25.8377 C   0  0  0  0  0  0
  -28.4037  -18.6353  -24.8296 C   0  0  0  0  0  0
  -28.2336  -20.1037  -25.0174 N   0  0  0  0  0  0
  -29.3375  -20.8335  -25.3930 C   0  0  0  0  0  0
  -30.6965  -20.0870  -25.6200 C   0  0  0  0  0  0
  -31.7329  -20.7502  -25.6966 O   0  0  0  0  0  0
  -29.3602  -22.0518  -25.6134 O   0  0  0  0  0  0
  -27.0330  -20.7170  -24.7489 C   0  0  0  0  0  0
  -26.0142  -19.8888  -24.4388 N   0  0  0  0  0  0
  -24.6763  -20.1554  -23.8753 C   0  0  2  0  0  0
  -23.7400  -20.4663  -25.0137 C   0  0  0  0  0  0
  -23.7763  -21.6883  -25.7371 C   0  0  0  0  0  0
  -22.9037  -21.9390  -26.8128 C   0  0  0  0  0  0
  -21.9689  -20.9644  -27.1963 C   0  0  0  0  0  0
  -21.9058  -19.7483  -26.4990 C   0  0  0  0  0  0
  -22.7811  -19.5086  -25.4217 C   0  0  0  0  0  0
  -24.5164  -21.2958  -22.8300 C   0  0  0  0  0  0
  -23.2582  -21.5883  -22.4362 N   0  0  0  0  0  0
  -22.7649  -22.6490  -21.5338 C   0  0  1  0  0  0
  -23.1014  -22.4671  -20.0414 C   0  0  2  0  0  0
  -23.9141  -23.6659  -20.1258 N   0  0  0  0  0  0
  -23.6083  -23.9335  -21.4380 C   0  0  0  0  0  0
  -23.9554  -24.8196  -22.1915 O   0  0  0  0  0  0
  -25.0353  -23.9630  -19.2542 C   0  0  2  0  0  0
  -25.4967  -22.5608  -18.6942 C   0  0  0  0  0  0
  -26.8925  -22.1969  -19.2367 C   0  0  0  0  0  0
  -24.2898  -21.3120  -19.2961 S   0  0  0  0  0  0
  -25.5466  -22.4685  -17.1618 C   0  0  0  0  0  0
  -24.6844  -25.0834  -18.2450 C   0  0  0  0  0  0
  -23.5247  -25.1355  -17.7730 O   0  5  0  0  0  0
  -25.5689  -25.9425  -18.0136 O   0  0  0  0  0  0
  -25.5030  -21.8681  -22.3714 O   0  0  0  0  0  0
  -26.8517  -21.9387  -24.8130 O   0  0  0  0  0  0
  -33.4111  -16.9575  -24.8588 H   0  0  0  0  0  0
  -32.9412  -18.5328  -24.2231 H   0  0  0  0  0  0
  -31.8787  -17.1462  -24.0132 H   0  0  0  0  0  0
  -31.6117  -17.0171  -26.5408 H   0  0  0  0  0  0
  -32.5493  -18.4719  -26.6978 H   0  0  0  0  0  0
  -28.9747  -18.0656  -26.8467 H   0  0  0  0  0  0
  -29.5691  -16.9804  -25.6130 H   0  0  0  0  0  0
  -28.7612  -18.4538  -23.8139 H   0  0  0  0  0  0
  -27.4886  -18.0526  -24.9293 H   0  0  0  0  0  0
  -26.2285  -18.9013  -24.4906 H   0  0  0  0  0  0
  -24.3733  -19.2309  -23.3806 H   0  0  0  0  0  0
  -24.4792  -22.4567  -25.4580 H   0  0  0  0  0  0
  -22.9502  -22.8753  -27.3484 H   0  0  0  0  0  0
  -21.3026  -21.1489  -28.0254 H   0  0  0  0  0  0
  -21.1796  -19.0022  -26.7911 H   0  0  0  0  0  0
  -22.7251  -18.5581  -24.9115 H   0  0  0  0  0  0
  -22.5399  -21.0189  -22.8570 H   0  0  0  0  0  0
  -21.7005  -22.8421  -21.6760 H   0  0  0  0  0  0
  -22.2332  -22.5948  -19.3905 H   0  0  0  0  0  0
  -25.8299  -24.3560  -19.8878 H   0  0  0  0  0  0
  -27.6520  -22.8900  -18.8709 H   0  0  0  0  0  0
  -26.9247  -22.2226  -20.3247 H   0  0  0  0  0  0
  -27.1911  -21.1951  -18.9278 H   0  0  0  0  0  0
  -26.3235  -23.1339  -16.7950 H   0  0  0  0  0  0
  -24.5983  -22.7404  -16.6957 H   0  0  0  0  0  0
  -25.7943  -21.4607  -16.8270 H   0  0  0  0  0  0
  1  2  1  0  0  0
  1 37  1  0  0  0
  1 38  1  0  0  0
  1 39  1  0  0  0
  2  3  1  0  0  0
  2 40  1  0  0  0
  2 41  1  0  0  0
  3  8  1  0  0  0
  3  4  1  0  0  0
  4  5  1  0  0  0
  4 42  1  0  0  0
  4 43  1  0  0  0
  5  6  1  0  0  0
  5 44  1  0  0  0
  5 45  1  0  0  0
  6  7  1  0  0  0
  6 11  1  0  0  0
  7  8  1  0  0  0
  7 10  2  0  0  0
  8  9  2  0  0  0
 11 12  1  0  0  0
 11 36  2  0  0  0
 12 13  1  0  0  0
 12 46  1  0  0  0
 13 14  1  0  0  0
 13 20  1  0  0  0
 13 47  1  0  0  0
 14 19  1  0  0  0
 14 15  2  0  0  0
 15 16  1  0  0  0
 15 48  1  0  0  0
 16 17  2  0  0  0
 16 49  1  0  0  0
 17 18  1  0  0  0
 17 50  1  0  0  0
 18 19  2  0  0  0
 18 51  1  0  0  0
 19 52  1  0  0  0
 20 21  1  0  0  0
 20 35  2  0  0  0
 21 22  1  0  0  0
 21 53  1  0  0  0
 22 25  1  0  0  0
 22 23  1  0  0  0
 22 54  1  0  0  0
 23 30  1  0  0  0
 23 24  1  0  0  0
 23 55  1  0  0  0
 24 25  1  0  0  0
 24 27  1  0  0  0
 25 26  2  0  0  0
 27 28  1  0  0  0
 27 32  1  0  0  0
 27 56  1  0  0  0
 28 29  1  0  0  0
 28 30  1  0  0  0
 28 31  1  0  0  0
 29 57  1  0  0  0
 29 58  1  0  0  0
 29 59  1  0  0  0
 31 60  1  0  0  0
 31 61  1  0  0  0
 31 62  1  0  0  0
 32 33  1  0  0  0
 32 34  2  0  0  0
M  CHG  1  33  -1
M  END
> <s_m_entry_id>
27501

> <s_m_entry_name>
data_maestro.11

> <s_m_Source_Path>
C:\Users\olshana1\Git\GramNeg-Accumulation\Gram Negative Permeation - OmpF

> <s_m_Source_File>
data_maestro.csv

> <i_m_Source_File_Index>
11

> <s_m_job_name>
glide-dock_Nicaido_neutral

> <s_i_glide_gridfile>
3POX-grid

> <i_i_glide_lignum>
15

> <i_i_glide_rotatable_bonds>
9

> <r_i_docking_score>
-4.81752087319442

> <r_i_glide_ligand_efficiency>
-0.133820024255401

> <r_i_glide_ligand_efficiency_sa>
-0.441863984008838

> <r_i_glide_ligand_efficiency_ln>
-1.05105290015822

> <r_i_glide_gscore>
-4.81752087319442

> <r_i_glide_lipo>
-0.261831159389656

> <r_i_glide_hbond>
-0.549357658637748

> <r_i_glide_metal>
0

> <r_i_glide_rewards>
0.011866253982757

> <r_i_glide_evdw>
-32.3615188598633

> <r_i_glide_ecoul>
-14.2148399353027

> <r_i_glide_erotb>
0.461572583116075

> <r_i_glide_esite>
-0.729468958977277

> <r_i_glide_emodel>
-62.7287547157831

> <r_i_glide_energy>
-46.576358795166

> <r_i_glide_einternal>
20.7002868652344

> <i_i_glide_confnum>
181

> <i_i_glide_posenum>
308

> <r_i_glide_eff_state_penalty>
0

> <r_glide_res:A132_vdw>
-2.34144635031358

> <r_glide_res:A132_coul>
-40.0347171475666

> <r_glide_res:A132_hbond>
0

> <r_glide_res:A132_dist>
1.7113645778907

> <r_glide_res:A132_Eint>
-42.3761634978802

> <r_glide_res:A117_vdw>
-5.85876483001093

> <r_glide_res:A117_coul>
2.45580952085638

> <r_glide_res:A117_hbond>
0

> <r_glide_res:A117_dist>
1.95186885584759

> <r_glide_res:A117_Eint>
-3.40295530915455

> <r_glide_res:A113_vdw>
-0.833892888790125

> <r_glide_res:A113_coul>
21.1502153531496

> <r_glide_res:A113_hbond>
0

> <r_glide_res:A113_dist>
3.77347917384586

> <r_glide_res:A113_Eint>
20.3163224643595

> <r_glide_res:A82_vdw>
-1.53662672247919

> <r_glide_res:A82_coul>
-31.4702832223064

> <r_glide_res:A82_hbond>
0

> <r_glide_res:A82_dist>
3.53803205946345

> <r_glide_res:A82_Eint>
-33.0069099447856

> <r_glide_res:A42_vdw>
0.141021528694164

> <r_glide_res:A42_coul>
-33.1294242493898

> <r_glide_res:A42_hbond>
-0.32

> <r_glide_res:A42_dist>
1.71359007653864

> <r_glide_res:A42_Eint>
-33.3084027206956

> <r_glide_res:A16_vdw>
-1.72317110635033

> <r_glide_res:A16_coul>
-15.0933479953467

> <r_glide_res:A16_hbond>
0

> <r_glide_res:A16_dist>
2.75022328983007

> <r_glide_res:A16_Eint>
-16.816519101697

> <s_m_source_file>
ligprep_Nicaido_neutral.maegz

> <i_m_source_file_index>
11

> <i_lp_mmshare_version>
58128

> <i_f3d_flags>
0

> <s_lp_Force_Field>
S-OPLS

> <r_lp_Energy>
67.572455

> <b_lp_Chiralities_Consistent>
1

> <s_lp_Variant>
Piperacillin-1

> <s_epik_input>
W0NIM11bQ0gyXU4xW0NIMl1bQ0gyXU4oQyg9TylDMT1PKUMoPU8pW05IXVtDQEhdKGMyW2NIXVtjSF1bY0hdW2NIXVtjSF0yKUMoPU8pW05IXVtDQEBIXTNDKD1PKU4oW0NAQEhdMzQpW0NASF0oQyhTNCkoW0NIM10pW0NIM10pQyg9TylbT0hd

> <s_epik_cmdline>
J2VwaWtfcHl0aG9uJywgJy1waHQnLCAnMC4wJywgJy1waCcsICc3LjQnLCAnLW50JywgJy1tYScsICc1MDAnLCAnLWltYWUnLCAnPGluZmlsZS5tYWU+JywgJy1vbWFlJywgJzxvdXRmaWxlLm1hZT4n

> <r_lp_tautomer_probability>
1

> <r_epik_Ionization_Penalty>
  0.0049

> <r_epik_Ionization_Penalty_Charging>
  0.0000

> <r_epik_Ionization_Penalty_Neutral>
  0.0049

> <r_epik_State_Penalty>
  0.0000

> <r_epik_Charging_Adjusted_Penalty>
1.13204004886318e-05

> <i_epik_Tot_Q>
-1

> <i_epik_Tot_abs_Q>
1

> <s_epik_Chemistry_Notes>
This compound contains an acetal/aminal-like group ( X-CH(R)-Y where X, Y are N, S, or O) that may be acid/base labile, releasing an aldehyde.

> <s_m_subgroup_title>
glide-dock_Nicaido_neutral_pv1

> <s_m_subgroupid>
glide-dock_Nicaido_neutral_pv1

> <b_m_subgroup_collapsed>
0

$$$$
Aztreonam
                    3D
 Schrodinger Suite 2022-2.
 43 44  0  0  1  0            999 V2000
  -21.6766  -22.2671  -18.7553 C   0  0  0  0  0  0
  -22.4659  -23.4104  -18.1050 C   0  0  1  0  0  0
  -23.8206  -23.8964  -18.6695 C   0  0  2  0  0  0
  -22.9701  -24.9529  -19.4226 C   0  0  0  0  0  0
  -21.9501  -24.7119  -18.5174 N   0  0  0  0  0  0
  -20.8144  -25.5491  -17.6133 S   0  0  0  0  0  0
  -19.7462  -24.5805  -17.3333 O   0  0  0  0  0  0
  -20.3700  -26.6860  -18.4416 O   0  5  0  0  0  0
  -21.5689  -25.9497  -16.4157 O   0  0  0  0  0  0
  -23.1039  -25.7211  -20.3528 O   0  0  0  0  0  0
  -24.4991  -22.9051  -19.5126 N   0  0  0  0  0  0
  -25.7054  -23.1089  -20.0796 C   0  0  0  0  0  0
  -26.3059  -21.8996  -20.8214 C   0  0  0  0  0  0
  -25.5688  -20.6171  -20.7223 C   0  0  0  0  0  0
  -25.4903  -19.9009  -19.5483 C   0  0  0  0  0  0
  -24.7086  -18.3579  -19.7782 S   0  0  0  0  0  0
  -24.5304  -18.7461  -21.4833 C   0  0  0  0  0  0
  -23.9689  -17.8601  -22.3835 N   0  0  0  0  0  0
  -24.9990  -19.9482  -21.8123 N   0  0  0  0  0  0
  -27.3614  -21.8756  -21.5376 N   0  0  0  0  0  0
  -28.0898  -23.0787  -21.6154 O   0  0  0  0  0  0
  -29.2064  -22.9414  -22.5153 C   0  0  0  0  0  0
  -28.7696  -23.0705  -24.0012 C   0  0  0  0  0  0
  -29.6522  -23.1481  -24.8867 O   0  5  0  0  0  0
  -27.5496  -23.1491  -24.2626 O   0  0  0  0  0  0
  -30.1247  -24.1203  -22.1330 C   0  0  0  0  0  0
  -29.9988  -21.6221  -22.3279 C   0  0  0  0  0  0
  -26.2757  -24.2004  -20.0113 O   0  0  0  0  0  0
  -22.1083  -21.2998  -18.4980 H   0  0  0  0  0  0
  -20.6404  -22.2566  -18.4161 H   0  0  0  0  0  0
  -21.6626  -22.3390  -19.8433 H   0  0  0  0  0  0
  -22.4984  -23.3369  -17.0162 H   0  0  0  0  0  0
  -24.4611  -24.3116  -17.8876 H   0  0  0  0  0  0
  -24.0639  -21.9981  -19.6064 H   0  0  0  0  0  0
  -25.8892  -20.1550  -18.5757 H   0  0  0  0  0  0
  -24.2285  -17.9545  -23.3601 H   0  0  0  0  0  0
  -23.8459  -16.8983  -22.1049 H   0  0  0  0  0  0
  -30.9243  -24.2778  -22.8581 H   0  0  0  0  0  0
  -29.5690  -25.0483  -22.0135 H   0  0  0  0  0  0
  -30.6027  -23.9300  -21.1708 H   0  0  0  0  0  0
  -30.9402  -21.6431  -22.8787 H   0  0  0  0  0  0
  -30.2395  -21.4530  -21.2767 H   0  0  0  0  0  0
  -29.4430  -20.7525  -22.6815 H   0  0  0  0  0  0
  1  2  1  0  0  0
  1 29  1  0  0  0
  1 30  1  0  0  0
  1 31  1  0  0  0
  2  5  1  0  0  0
  2  3  1  0  0  0
  2 32  1  0  0  0
  3  4  1  0  0  0
  3 11  1  0  0  0
  3 33  1  0  0  0
  4  5  1  0  0  0
  4 10  2  0  0  0
  5  6  1  0  0  0
  6  7  2  0  0  0
  6  8  1  0  0  0
  6  9  2  0  0  0
 11 12  1  0  0  0
 11 34  1  0  0  0
 12 13  1  0  0  0
 12 28  2  0  0  0
 13 14  1  0  0  0
 13 20  2  3  0  0
 14 19  1  0  0  0
 14 15  2  0  0  0
 15 16  1  0  0  0
 15 35  1  0  0  0
 16 17  1  0  0  0
 17 18  1  0  0  0
 17 19  2  0  0  0
 18 36  1  0  0  0
 18 37  1  0  0  0
 20 21  1  0  0  0
 21 22  1  0  0  0
 22 23  1  0  0  0
 22 26  1  0  0  0
 22 27  1  0  0  0
 23 24  1  0  0  0
 23 25  2  0  0  0
 26 38  1  0  0  0
 26 39  1  0  0  0
 26 40  1  0  0  0
 27 41  1  0  0  0
 27 42  1  0  0  0
 27 43  1  0  0  0
M  CHG  2   8  -1  24  -1
M  END
> <s_m_entry_id>
27502

> <s_m_entry_name>
data_maestro.21

> <s_m_Source_Path>
C:\Users\olshana1\Git\GramNeg-Accumulation\Gram Negative Permeation - OmpF

> <s_m_Source_File>
data_maestro.csv

> <i_m_Source_File_Index>
21

> <s_m_job_name>
glide-dock_Nicaido_neutral

> <s_i_glide_gridfile>
3POX-grid

> <i_i_glide_lignum>
27

> <i_i_glide_rotatable_bonds>
8

> <r_i_docking_score>
-4.8140241357963

> <r_i_glide_ligand_efficiency>
-0.171929433421296

> <r_i_glide_ligand_efficiency_sa>
-0.522079020888048

> <r_i_glide_ligand_efficiency_ln>
-1.11121811643228

> <r_i_glide_gscore>
-4.8140241357963

> <r_i_glide_lipo>
0

> <r_i_glide_hbond>
-0.820888795814286

> <r_i_glide_metal>
0

> <r_i_glide_rewards>
-0.453338762547024

> <r_i_glide_evdw>
-22.019172668457

> <r_i_glide_ecoul>
-15.7357273101807

> <r_i_glide_erotb>
0.635830109179744

> <r_i_glide_esite>
-0.714308956664783

> <r_i_glide_emodel>
-65.6584801716307

> <r_i_glide_energy>
-37.7548999786377

> <r_i_glide_einternal>
3.10268187522888

> <i_i_glide_confnum>
17

> <i_i_glide_posenum>
193

> <r_i_glide_eff_state_penalty>
0

> <r_glide_res:A132_vdw>
-1.17852353270132

> <r_glide_res:A132_coul>
-61.1935137651237

> <r_glide_res:A132_hbond>
-0.16

> <r_glide_res:A132_dist>
1.79723063564376

> <r_glide_res:A132_Eint>
-62.532037297825

> <r_glide_res:A117_vdw>
-2.64450730721906

> <r_glide_res:A117_coul>
33.9858799429553

> <r_glide_res:A117_hbond>
-0.0586025734303392

> <r_glide_res:A117_dist>
2.33894465930624

> <r_glide_res:A117_Eint>
31.2827700623059

> <r_glide_res:A113_vdw>
-1.40330377090232

> <r_glide_res:A113_coul>
37.3090335342195

> <r_glide_res:A113_hbond>
0

> <r_glide_res:A113_dist>
3.12434402708941

> <r_glide_res:A113_Eint>
35.9057297633172

> <r_glide_res:A82_vdw>
-1.15670690548936

> <r_glide_res:A82_coul>
-61.954777479316

> <r_glide_res:A82_hbond>
-0.0589186445561287

> <r_glide_res:A82_dist>
1.64855941378988

> <r_glide_res:A82_Eint>
-63.1704030293615

> <r_glide_res:A42_vdw>
0.483841328692931

> <r_glide_res:A42_coul>
-69.6891790928994

> <r_glide_res:A42_hbond>
-0.343367577827818

> <r_glide_res:A42_dist>
1.8742054799276

> <r_glide_res:A42_Eint>
-69.5487053420343

> <r_glide_res:A16_vdw>
-0.271459887557033

> <r_glide_res:A16_coul>
-42.4719532423449

> <r_glide_res:A16_hbond>
0

> <r_glide_res:A16_dist>
3.84851964925842

> <r_glide_res:A16_Eint>
-42.7434131299019

> <s_m_source_file>
ligprep_Nicaido_neutral.maegz

> <i_m_source_file_index>
21

> <i_lp_mmshare_version>
58128

> <i_f3d_flags>
0

> <s_lp_Force_Field>
S-OPLS

> <r_lp_Energy>
50.237147

> <b_lp_Chiralities_Consistent>
1

> <s_lp_Variant>
Aztreonam-2

> <s_epik_input>
Tz1TKD1PKShbT0hdKU4xQyg9TylbQ0BASF0oW0NAQEhdMVtDSDNdKVtOSF1DKD1PKS9DKGMyW2NIXXNjKG4yKVtOSDJdKT1OL09DKFtDSDNdKShbQ0gzXSlDKD1PKVtPSF0=

> <s_epik_cmdline>
J2VwaWtfcHl0aG9uJywgJy1waHQnLCAnMC4wJywgJy1waCcsICc3LjQnLCAnLW50JywgJy1tYScsICc1MDAnLCAnLWltYWUnLCAnPGluZmlsZS5tYWU+JywgJy1vbWFlJywgJzxvdXRmaWxlLm1hZT4n

> <r_lp_tautomer_probability>
1

> <r_epik_Ionization_Penalty>
  0.0004

> <r_epik_Ionization_Penalty_Charging>
  0.0000

> <r_epik_Ionization_Penalty_Neutral>
  0.0004

> <r_epik_State_Penalty>
  0.0000

> <r_epik_Charging_Adjusted_Penalty>
4.45674509427693e-05

> <i_epik_Tot_Q>
-2

> <i_epik_Tot_abs_Q>
2

> <s_epik_Chemistry_Notes>
This compound has an imine and may undergo hydrolysis.

> <s_m_subgroup_title>
glide-dock_Nicaido_neutral_pv1

> <s_m_subgroupid>
glide-dock_Nicaido_neutral_pv1

> <b_m_subgroup_collapsed>
0

$$$$
Cefoxitin
                    3D
 Schrodinger Suite 2022-2.
 44 46  0  0  1  0            999 V2000
  -33.9148  -20.0059  -25.3552 C   0  0  0  0  0  0
  -32.5619  -20.3521  -25.6246 O   0  0  0  0  0  0
  -32.1380  -21.6133  -25.1085 C   0  0  2  0  0  0
  -31.7177  -21.6199  -23.6185 C   0  0  1  0  0  0
  -30.3421  -21.7637  -24.0658 N   0  0  0  0  0  0
  -30.6362  -21.8034  -25.4175 C   0  0  0  0  0  0
  -29.9628  -21.9496  -26.4134 O   0  0  0  0  0  0
  -29.2771  -21.9290  -23.1585 C   0  0  0  0  0  0
  -28.0037  -22.6773  -23.6884 C   0  0  0  0  0  0
  -27.5713  -23.6134  -22.9782 O   0  5  0  0  0  0
  -27.5689  -22.3492  -24.8133 O   0  0  0  0  0  0
  -29.3363  -21.4096  -21.9041 C   0  0  0  0  0  0
  -30.5513  -20.6650  -21.3483 C   0  0  0  0  0  0
  -31.7756  -20.1375  -22.5752 S   0  0  0  0  0  0
  -28.2021  -21.4981  -20.8867 C   0  0  0  0  0  0
  -28.6466  -22.1240  -19.6970 O   0  0  0  0  0  0
  -28.1318  -23.2707  -19.2523 C   0  0  0  0  0  0
  -28.7691  -23.5699  -18.0772 N   0  0  0  0  0  0
  -27.2564  -23.9496  -19.7929 O   0  0  0  0  0  0
  -32.9906  -22.7314  -25.5531 N   0  0  0  0  0  0
  -32.7575  -24.0553  -25.4853 C   0  0  0  0  0  0
  -33.7049  -24.9494  -26.2835 C   0  0  0  0  0  0
  -33.2232  -25.1003  -27.6942 C   0  0  0  0  0  0
  -32.4290  -26.0960  -28.2055 C   0  0  0  0  0  0
  -32.1745  -25.9532  -29.6012 C   0  0  0  0  0  0
  -32.7810  -24.8503  -30.1402 C   0  0  0  0  0  0
  -33.6650  -23.9537  -28.9361 S   0  0  0  0  0  0
  -31.8199  -24.5598  -24.8693 O   0  0  0  0  0  0
  -34.0945  -18.9790  -25.6733 H   0  0  0  0  0  0
  -34.6092  -20.6448  -25.9007 H   0  0  0  0  0  0
  -34.1463  -20.0707  -24.2917 H   0  0  0  0  0  0
  -32.0487  -22.5014  -23.0659 H   0  0  0  0  0  0
  -31.0482  -21.3162  -20.6302 H   0  0  0  0  0  0
  -30.2177  -19.7753  -20.8142 H   0  0  0  0  0  0
  -27.2990  -21.9604  -21.2789 H   0  0  0  0  0  0
  -27.9131  -20.4791  -20.6283 H   0  0  0  0  0  0
  -29.5795  -22.9870  -17.8479 H   0  0  0  0  0  0
  -28.4721  -24.3686  -17.5394 H   0  0  0  0  0  0
  -33.8119  -22.4558  -26.0691 H   0  0  0  0  0  0
  -34.7135  -24.5348  -26.2675 H   0  0  0  0  0  0
  -33.7643  -25.9263  -25.8020 H   0  0  0  0  0  0
  -32.0389  -26.9249  -27.6315 H   0  0  0  0  0  0
  -31.5788  -26.6643  -30.1547 H   0  0  0  0  0  0
  -32.7773  -24.5165  -31.1684 H   0  0  0  0  0  0
  1  2  1  0  0  0
  1 29  1  0  0  0
  1 30  1  0  0  0
  1 31  1  0  0  0
  2  3  1  0  0  0
  3  6  1  0  0  0
  3  4  1  0  0  0
  3 20  1  0  0  0
  4 14  1  0  0  0
  4  5  1  0  0  0
  4 32  1  0  0  0
  5  6  1  0  0  0
  5  8  1  0  0  0
  6  7  2  0  0  0
  8  9  1  0  0  0
  8 12  2  0  0  0
  9 10  1  0  0  0
  9 11  2  0  0  0
 12 13  1  0  0  0
 12 15  1  0  0  0
 13 14  1  0  0  0
 13 33  1  0  0  0
 13 34  1  0  0  0
 15 16  1  0  0  0
 15 35  1  0  0  0
 15 36  1  0  0  0
 16 17  1  0  0  0
 17 18  1  0  0  0
 17 19  2  0  0  0
 18 37  1  0  0  0
 18 38  1  0  0  0
 20 21  1  0  0  0
 20 39  1  0  0  0
 21 22  1  0  0  0
 21 28  2  0  0  0
 22 23  1  0  0  0
 22 40  1  0  0  0
 22 41  1  0  0  0
 23 27  1  0  0  0
 23 24  2  0  0  0
 24 25  1  0  0  0
 24 42  1  0  0  0
 25 26  2  0  0  0
 25 43  1  0  0  0
 26 27  1  0  0  0
 26 44  1  0  0  0
M  CHG  1  10  -1
M  END
> <s_m_entry_id>
27503

> <s_m_entry_name>
data_maestro.4

> <s_m_Source_Path>
C:\Users\olshana1\Git\GramNeg-Accumulation\Gram Negative Permeation - OmpF

> <s_m_Source_File>
data_maestro.csv

> <i_m_Source_File_Index>
4

> <s_m_job_name>
glide-dock_Nicaido_neutral

> <s_i_glide_gridfile>
3POX-grid

> <i_i_glide_lignum>
4

> <i_i_glide_rotatable_bonds>
9

> <r_i_docking_score>
-4.81286281721217

> <r_i_glide_ligand_efficiency>
-0.171887957757578

> <r_i_glide_ligand_efficiency_sa>
-0.521953076345138

> <r_i_glide_ligand_efficiency_ln>
-1.11095005000526

> <r_i_glide_gscore>
-4.81286281721217

> <r_i_glide_lipo>
-0.0227952602699166

> <r_i_glide_hbond>
-1.00221951091914

> <r_i_glide_metal>
0

> <r_i_glide_rewards>
-0.498019096811011

> <r_i_glide_evdw>
-24.3060836791992

> <r_i_glide_ecoul>
-13.9651336669922

> <r_i_glide_erotb>
0.545654768997296

> <r_i_glide_esite>
-0.52540948420061

> <r_i_glide_emodel>
-57.6293330369272

> <r_i_glide_energy>
-38.2712173461914

> <r_i_glide_einternal>
13.1590337753296

> <i_i_glide_confnum>
33

> <i_i_glide_posenum>
347

> <r_i_glide_eff_state_penalty>
0

> <r_glide_res:A132_vdw>
-1.80112199460486

> <r_glide_res:A132_coul>
-39.2699333412982

> <r_glide_res:A132_hbond>
-0.161397582358408

> <r_glide_res:A132_dist>
2.12231569018507

> <r_glide_res:A132_Eint>
-41.2324529182615

> <r_glide_res:A117_vdw>
-0.87632488374218

> <r_glide_res:A117_coul>
27.6556539407516

> <r_glide_res:A117_hbond>
0

> <r_glide_res:A117_dist>
4.25006955772546

> <r_glide_res:A117_Eint>
26.7793290570094

> <r_glide_res:A113_vdw>
-1.58111113158413

> <r_glide_res:A113_coul>
15.820812958201

> <r_glide_res:A113_hbond>
-0.16

> <r_glide_res:A113_dist>
1.96071420675848

> <r_glide_res:A113_Eint>
14.0797018266169

> <r_glide_res:A82_vdw>
-1.29722447004964

> <r_glide_res:A82_coul>
-50.5068642034767

> <r_glide_res:A82_hbond>
-0.2

> <r_glide_res:A82_dist>
1.81849635831342

> <r_glide_res:A82_Eint>
-52.0040886735263

> <r_glide_res:A42_vdw>
-0.340753371754244

> <r_glide_res:A42_coul>
-56.0171082519187

> <r_glide_res:A42_hbond>
-0.320821928560731

> <r_glide_res:A42_dist>
1.65773494335777

> <r_glide_res:A42_Eint>
-56.6786835522337

> <r_glide_res:A16_vdw>
-3.29936169445138

> <r_glide_res:A16_coul>
-36.6209164965147

> <r_glide_res:A16_hbond>
-0.16

> <r_glide_res:A16_dist>
1.90840944894783

> <r_glide_res:A16_Eint>
-40.0802781909661

> <s_m_source_file>
ligprep_Nicaido_neutral.maegz

> <i_m_source_file_index>
4

> <i_lp_mmshare_version>
58128

> <i_f3d_flags>
0

> <s_lp_Force_Field>
S-OPLS

> <r_lp_Energy>
27.517474

> <b_lp_Chiralities_Consistent>
1

> <s_lp_Variant>
Cefoxitin-1

> <s_epik_input>
czFbY0hdW2NIXVtjSF1jMVtDSDJdQyg9TylbTkhdW0NAXTIoT1tDSDNdKUMoPU8pTihbQ0BIXTIzKUMoQyg9TylbT0hdKT1DKFtDSDJdUzMpW0NIMl1PQyg9TylbTkgyXQ==

> <s_epik_cmdline>
J2VwaWtfcHl0aG9uJywgJy1waHQnLCAnMC4wJywgJy1waCcsICc3LjQnLCAnLW50JywgJy1tYScsICc1MDAnLCAnLWltYWUnLCAnPGluZmlsZS5tYWU+JywgJy1vbWFlJywgJzxvdXRmaWxlLm1hZT4n

> <r_lp_tautomer_probability>
1

> <r_epik_Ionization_Penalty>
  0.0000

> <r_epik_Ionization_Penalty_Charging>
  0.0000

> <r_epik_Ionization_Penalty_Neutral>
  0.0000

> <r_epik_State_Penalty>
  0.0000

> <r_epik_Charging_Adjusted_Penalty>
8.89144247208744e-06

> <i_epik_Tot_Q>
-1

> <i_epik_Tot_abs_Q>
1

> <s_epik_Chemistry_Notes>
This compound has an ester and may undergo hydrolysis at high or low pH. This compound contains an acetal/aminal-like group ( X-CH(R)-Y where X, Y are N, S, or O) that may be acid/base labile, releasing an aldehyde.

> <s_m_subgroup_title>
glide-dock_Nicaido_neutral_pv1

> <s_m_subgroupid>
glide-dock_Nicaido_neutral_pv1

> <b_m_subgroup_collapsed>
0

$$$$
Ceftriaxone
                    3D
 Schrodinger Suite 2022-2.
 52 55  0  0  1  0            999 V2000
  -22.7131  -22.3119  -20.7445 C   0  0  0  0  0  0
  -23.5325  -23.0717  -21.6813 N   0  0  0  0  0  0
  -24.1771  -22.4167  -22.7653 C   0  0  0  0  0  0
  -24.7533  -20.7147  -22.3811 S   0  0  0  0  0  0
  -25.7747  -20.9288  -20.8831 C   0  0  0  0  0  0
  -27.2652  -21.0126  -21.2085 C   0  0  0  0  0  0
  -27.9215  -22.1862  -21.4020 C   0  0  0  0  0  0
  -29.2838  -22.2584  -21.7382 N   0  0  0  0  0  0
  -30.2022  -21.1701  -21.4840 C   0  0  2  0  0  0
  -31.2999  -22.0237  -22.1460 C   0  0  2  0  0  0
  -30.2488  -23.1624  -22.1505 C   0  0  0  0  0  0
  -30.2111  -24.3485  -22.4098 O   0  0  0  0  0  0
  -31.6251  -21.5268  -23.4774 N   0  0  0  0  0  0
  -32.4017  -22.1579  -24.3718 C   0  0  0  0  0  0
  -32.4915  -21.4820  -25.7311 C   0  0  0  0  0  0
  -31.6210  -20.2842  -25.9309 C   0  0  0  0  0  0
  -32.1509  -19.0571  -26.2557 C   0  0  0  0  0  0
  -30.9183  -17.8442  -26.4626 S   0  0  0  0  0  0
  -29.7123  -19.0524  -26.0634 C   0  0  0  0  0  0
  -28.3658  -18.7497  -26.0088 N   0  0  0  0  0  0
  -30.2195  -20.2680  -25.8521 N   0  0  0  0  0  0
  -33.2824  -21.9483  -26.6177 N   0  0  0  0  0  0
  -33.2360  -21.2538  -27.8362 O   0  0  0  0  0  0
  -34.3005  -21.7270  -28.6446 C   0  0  0  0  0  0
  -32.9901  -23.2131  -24.1323 O   0  0  0  0  0  0
  -29.5094  -19.6586  -22.2295 S   0  0  0  0  0  0
  -27.9448  -19.6470  -21.3086 C   0  0  0  0  0  0
  -27.1957  -23.5515  -21.3533 C   0  0  0  0  0  0
  -26.7957  -23.9496  -20.2404 O   0  5  0  0  0  0
  -27.1734  -24.2123  -22.4133 O   0  0  0  0  0  0
  -24.3389  -22.9505  -23.9436 N   0  0  0  0  0  0
  -23.9753  -24.2854  -24.1217 C   0  0  0  0  0  0
  -23.6296  -25.1275  -22.8502 C   0  0  0  0  0  0
  -23.5690  -26.3489  -23.0025 O   0  0  0  0  0  0
  -23.4527  -24.4909  -21.6679 N   0  5  0  0  0  0
  -23.9660  -24.8569  -25.2139 O   0  0  0  0  0  0
  -23.2746  -22.0776  -19.8418 H   0  0  0  0  0  0
  -21.8446  -22.8984  -20.4464 H   0  0  0  0  0  0
  -22.3405  -21.3833  -21.1769 H   0  0  0  0  0  0
  -25.6128  -20.0664  -20.2358 H   0  0  0  0  0  0
  -25.4425  -21.7836  -20.2997 H   0  0  0  0  0  0
  -30.3455  -21.0656  -20.4135 H   0  0  0  0  0  0
  -32.1619  -22.1770  -21.4953 H   0  0  0  0  0  0
  -31.1485  -20.6773  -23.7521 H   0  0  0  0  0  0
  -33.1905  -18.7941  -26.3893 H   0  0  0  0  0  0
  -27.7718  -19.3359  -25.4403 H   0  0  0  0  0  0
  -28.0649  -17.7772  -26.0218 H   0  0  0  0  0  0
  -34.3082  -21.1945  -29.5959 H   0  0  0  0  0  0
  -34.1967  -22.7920  -28.8577 H   0  0  0  0  0  0
  -35.2669  -21.5596  -28.1662 H   0  0  0  0  0  0
  -28.1299  -19.2731  -20.3004 H   0  0  0  0  0  0
  -27.2725  -18.9414  -21.7929 H   0  0  0  0  0  0
  1  2  1  0  0  0
  1 37  1  0  0  0
  1 38  1  0  0  0
  1 39  1  0  0  0
  2 35  1  0  0  0
  2  3  1  0  0  0
  3  4  1  0  0  0
  3 31  2  0  0  0
  4  5  1  0  0  0
  5  6  1  0  0  0
  5 40  1  0  0  0
  5 41  1  0  0  0
  6 27  1  0  0  0
  6  7  2  0  0  0
  7  8  1  0  0  0
  7 28  1  0  0  0
  8 11  1  0  0  0
  8  9  1  0  0  0
  9 10  1  0  0  0
  9 26  1  0  0  0
  9 42  1  0  0  0
 10 11  1  0  0  0
 10 13  1  0  0  0
 10 43  1  0  0  0
 11 12  2  0  0  0
 13 14  1  0  0  0
 13 44  1  0  0  0
 14 15  1  0  0  0
 14 25  2  0  0  0
 15 16  1  0  0  0
 15 22  2  3  0  0
 16 21  1  0  0  0
 16 17  2  0  0  0
 17 18  1  0  0  0
 17 45  1  0  0  0
 18 19  1  0  0  0
 19 20  1  0  0  0
 19 21  2  0  0  0
 20 46  1  0  0  0
 20 47  1  0  0  0
 22 23  1  0  0  0
 23 24  1  0  0  0
 24 48  1  0  0  0
 24 49  1  0  0  0
 24 50  1  0  0  0
 26 27  1  0  0  0
 27 51  1  0  0  0
 27 52  1  0  0  0
 28 29  1  0  0  0
 28 30  2  0  0  0
 31 32  1  0  0  0
 32 33  1  0  0  0
 32 36  2  0  0  0
 33 34  2  0  0  0
 33 35  1  0  0  0
M  CHG  2  29  -1  35  -1
M  END
> <s_m_entry_id>
27504

> <s_m_entry_name>
data_maestro.22

> <s_m_Source_Path>
C:\Users\olshana1\Git\GramNeg-Accumulation\Gram Negative Permeation - OmpF

> <s_m_Source_File>
data_maestro.csv

> <i_m_Source_File_Index>
22

> <s_m_job_name>
glide-dock_Nicaido_neutral

> <s_i_glide_gridfile>
3POX-grid

> <i_i_glide_lignum>
28

> <i_i_glide_rotatable_bonds>
9

> <r_i_docking_score>
-4.81244919365246

> <r_i_glide_ligand_efficiency>
-0.133679144268124

> <r_i_glide_ligand_efficiency_sa>
-0.441398808540581

> <r_i_glide_ligand_efficiency_ln>
-1.04994639670311

> <r_i_glide_gscore>
-4.81244919365246

> <r_i_glide_lipo>
0

> <r_i_glide_hbond>
-0.814707702781954

> <r_i_glide_metal>
0

> <r_i_glide_rewards>
0.00206770764803479

> <r_i_glide_evdw>
-28.4876327514648

> <r_i_glide_ecoul>
-15.707202911377

> <r_i_glide_erotb>
0.472124986767549

> <r_i_glide_esite>
-0.691472111006309

> <r_i_glide_emodel>
-72.3228343362831

> <r_i_glide_energy>
-44.1948356628418

> <r_i_glide_einternal>
10.4709720611572

> <i_i_glide_confnum>
164

> <i_i_glide_posenum>
9

> <r_i_glide_eff_state_penalty>
0

> <r_glide_res:A132_vdw>
-1.97751799575845

> <r_glide_res:A132_coul>
-88.3912719743917

> <r_glide_res:A132_hbond>
-0.306795411751926

> <r_glide_res:A132_dist>
2.07449201507616

> <r_glide_res:A132_Eint>
-90.6755853819021

> <r_glide_res:A117_vdw>
-3.87125015952943

> <r_glide_res:A117_coul>
35.0345939849321

> <r_glide_res:A117_hbond>
-0.121680160480149

> <r_glide_res:A117_dist>
2.1856040850837

> <r_glide_res:A117_Eint>
31.0416636649225

> <r_glide_res:A113_vdw>
-2.71440402526171

> <r_glide_res:A113_coul>
35.8191376907437

> <r_glide_res:A113_hbond>
0

> <r_glide_res:A113_dist>
2.18812313927052

> <r_glide_res:A113_Eint>
33.104733665482

> <r_glide_res:A82_vdw>
0.466838857933719

> <r_glide_res:A82_coul>
-85.6085188156895

> <r_glide_res:A82_hbond>
-0.36

> <r_glide_res:A82_dist>
1.61858971469879

> <r_glide_res:A82_Eint>
-85.5016799577558

> <r_glide_res:A42_vdw>
-2.53793864633332

> <r_glide_res:A42_coul>
-58.405965256698

> <r_glide_res:A42_hbond>
0

> <r_glide_res:A42_dist>
2.69553527678223

> <r_glide_res:A42_Eint>
-60.9439039030313

> <r_glide_res:A16_vdw>
-1.29812371141338

> <r_glide_res:A16_coul>
-44.6696590866155

> <r_glide_res:A16_hbond>
-0.0201207690471102

> <r_glide_res:A16_dist>
1.77641047806462

> <r_glide_res:A16_Eint>
-45.987903567076

> <s_m_source_file>
ligprep_Nicaido_neutral.maegz

> <i_m_source_file_index>
22

> <i_lp_mmshare_version>
58128

> <i_f3d_flags>
0

> <s_lp_Force_Field>
S-OPLS

> <r_lp_Energy>
109.903222

> <b_lp_Chiralities_Consistent>
1

> <s_lp_Variant>
Ceftriaxone-1

> <s_epik_input>
W09IXWMobjEpYyg9TyluYyhuMVtDSDNdKVNbQ0gyXUMoPUMyQyg9TylbT0hdKVtDSDJdU1tDQEhdKE4yMylbQ0BIXShDMz1PKVtOSF1DKD1PKS9DKD1OL09bQ0gzXSljNFtjSF1zYyhuNClbTkgyXQ==

> <s_epik_cmdline>
J2VwaWtfcHl0aG9uJywgJy1waHQnLCAnMC4wJywgJy1waCcsICc3LjQnLCAnLW50JywgJy1tYScsICc1MDAnLCAnLWltYWUnLCAnPGluZmlsZS5tYWU+JywgJy1vbWFlJywgJzxvdXRmaWxlLm1hZT4n

> <r_lp_tautomer_probability>
1

> <r_epik_Ionization_Penalty>
  0.0014

> <r_epik_Ionization_Penalty_Charging>
  0.0010

> <r_epik_Ionization_Penalty_Neutral>
  0.0004

> <r_epik_State_Penalty>
  0.0000

> <r_epik_Charging_Adjusted_Penalty>
0.000994184415634904

> <i_epik_Tot_Q>
-2

> <i_epik_Tot_abs_Q>
2

> <s_epik_Chemistry_Notes>
This compound has an imine and may undergo hydrolysis. This compound contains an acetal/aminal-like group ( X-CH(R)-Y where X, Y are N, S, or O) that may be acid/base labile, releasing an aldehyde.

> <s_m_subgroup_title>
glide-dock_Nicaido_neutral_pv1

> <s_m_subgroupid>
glide-dock_Nicaido_neutral_pv1

> <b_m_subgroup_collapsed>
0

$$$$
Cefacetrile
                    3D
 Schrodinger Suite 2022-2.
 35 36  0  0  1  0            999 V2000
  -31.5511  -16.7496  -27.7233 C   0  0  0  0  0  0
  -31.8407  -18.1076  -27.1102 C   0  0  0  0  0  0
  -31.1361  -18.3302  -25.9947 O   0  0  0  0  0  0
  -31.3713  -19.5132  -25.2521 C   0  0  0  0  0  0
  -30.2526  -19.7818  -24.2524 C   0  0  0  0  0  0
  -29.4344  -20.8703  -24.2906 C   0  0  0  0  0  0
  -28.4953  -21.1580  -23.2719 N   0  0  0  0  0  0
  -28.1016  -20.2084  -22.2420 C   0  0  2  0  0  0
  -27.4245  -21.3941  -21.5152 C   0  0  2  0  0  0
  -27.5998  -22.1391  -22.8660 C   0  0  0  0  0  0
  -27.1728  -23.1502  -23.3870 O   0  0  0  0  0  0
  -28.2211  -21.9440  -20.4074 N   0  0  0  0  0  0
  -28.0292  -23.1490  -19.8425 C   0  0  0  0  0  0
  -28.9536  -23.5203  -18.6819 C   0  0  0  0  0  0
  -28.7005  -24.8430  -18.0806 C   0  0  0  0  0  0
  -28.5103  -25.8878  -17.6135 N   0  0  0  0  0  0
  -27.1778  -23.9495  -20.2401 O   0  0  0  0  0  0
  -29.5690  -19.3523  -21.6129 S   0  0  0  0  0  0
  -30.1696  -18.7064  -23.1794 C   0  0  0  0  0  0
  -29.5629  -21.9488  -25.4127 C   0  0  0  0  0  0
  -29.5689  -21.5492  -26.5972 O   0  5  0  0  0  0
  -29.6062  -23.1494  -25.0631 O   0  0  0  0  0  0
  -32.6402  -18.8873  -27.6310 O   0  0  0  0  0  0
  -32.0000  -15.9609  -27.1194 H   0  0  0  0  0  0
  -30.4760  -16.5757  -27.7694 H   0  0  0  0  0  0
  -31.9625  -16.6867  -28.7297 H   0  0  0  0  0  0
  -31.5399  -20.3587  -25.9163 H   0  0  0  0  0  0
  -32.3013  -19.3904  -24.6956 H   0  0  0  0  0  0
  -27.3789  -19.4883  -22.6351 H   0  0  0  0  0  0
  -26.3934  -21.1691  -21.2408 H   0  0  0  0  0  0
  -28.9604  -21.3501  -20.0452 H   0  0  0  0  0  0
  -29.9692  -23.5497  -19.0689 H   0  0  0  0  0  0
  -28.9027  -22.7626  -17.8985 H   0  0  0  0  0  0
  -29.5176  -17.9038  -23.5257 H   0  0  0  0  0  0
  -31.1514  -18.2684  -22.9976 H   0  0  0  0  0  0
  1  2  1  0  0  0
  1 24  1  0  0  0
  1 25  1  0  0  0
  1 26  1  0  0  0
  2  3  1  0  0  0
  2 23  2  0  0  0
  3  4  1  0  0  0
  4  5  1  0  0  0
  4 27  1  0  0  0
  4 28  1  0  0  0
  5 19  1  0  0  0
  5  6  2  0  0  0
  6  7  1  0  0  0
  6 20  1  0  0  0
  7 10  1  0  0  0
  7  8  1  0  0  0
  8  9  1  0  0  0
  8 18  1  0  0  0
  8 29  1  0  0  0
  9 10  1  0  0  0
  9 12  1  0  0  0
  9 30  1  0  0  0
 10 11  2  0  0  0
 12 13  1  0  0  0
 12 31  1  0  0  0
 13 14  1  0  0  0
 13 17  2  0  0  0
 14 15  1  0  0  0
 14 32  1  0  0  0
 14 33  1  0  0  0
 15 16  3  0  0  0
 18 19  1  0  0  0
 19 34  1  0  0  0
 19 35  1  0  0  0
 20 21  1  0  0  0
 20 22  2  0  0  0
M  CHG  1  21  -1
M  END
> <s_m_entry_id>
27505

> <s_m_entry_name>
data_maestro.1

> <s_m_Source_Path>
C:\Users\olshana1\Git\GramNeg-Accumulation\Gram Negative Permeation - OmpF

> <s_m_Source_File>
data_maestro.csv

> <i_m_Source_File_Index>
1

> <s_m_job_name>
glide-dock_Nicaido_neutral

> <s_i_glide_gridfile>
3POX-grid

> <i_i_glide_lignum>
1

> <i_i_glide_rotatable_bonds>
7

> <r_i_docking_score>
-4.81226337905358

> <r_i_glide_ligand_efficiency>
-0.209228842567547

> <r_i_glide_ligand_efficiency_sa>
-0.595018995988516

> <r_i_glide_ligand_efficiency_ln>
-1.16364892024698

> <r_i_glide_gscore>
-4.81226337905358

> <r_i_glide_lipo>
0

> <r_i_glide_hbond>
-0.850154423934733

> <r_i_glide_metal>
0

> <r_i_glide_rewards>
-1.1020465615153

> <r_i_glide_evdw>
-23.6398735046387

> <r_i_glide_ecoul>
-11.6798000335693

> <r_i_glide_erotb>
0.660867222788296

> <r_i_glide_esite>
-0.586965936124515

> <r_i_glide_emodel>
-58.3876901369191

> <r_i_glide_energy>
-35.319673538208

> <r_i_glide_einternal>
2.62706351280212

> <i_i_glide_confnum>
18

> <i_i_glide_posenum>
52

> <r_i_glide_eff_state_penalty>
0

> <r_glide_res:A132_vdw>
-1.72447119388651

> <r_glide_res:A132_coul>
-32.5301936306178

> <r_glide_res:A132_hbond>
-0.244828789849324

> <r_glide_res:A132_dist>
2.05749330572256

> <r_glide_res:A132_Eint>
-34.4994936143536

> <r_glide_res:A117_vdw>
-3.4280232332293

> <r_glide_res:A117_coul>
20.0692109533845

> <r_glide_res:A117_hbond>
0

> <r_glide_res:A117_dist>
2.56348207063688

> <r_glide_res:A117_Eint>
16.6411877201552

> <r_glide_res:A113_vdw>
-2.41130350862753

> <r_glide_res:A113_coul>
10.8676113689786

> <r_glide_res:A113_hbond>
0

> <r_glide_res:A113_dist>
2.21030090523978

> <r_glide_res:A113_Eint>
8.45630786035109

> <r_glide_res:A82_vdw>
-1.63791977341701

> <r_glide_res:A82_coul>
-40.7852766710887

> <r_glide_res:A82_hbond>
-0.131871082781229

> <r_glide_res:A82_dist>
2.12715364703487

> <r_glide_res:A82_Eint>
-42.5550675272869

> <r_glide_res:A42_vdw>
1.34222843100649

> <r_glide_res:A42_coul>
-50.8528110524705

> <r_glide_res:A42_hbond>
-0.27345455130418

> <r_glide_res:A42_dist>
1.70302166389659

> <r_glide_res:A42_Eint>
-49.7840371727682

> <r_glide_res:A16_vdw>
-0.0231343924987355

> <r_glide_res:A16_coul>
-50.8112605304906

> <r_glide_res:A16_hbond>
-0.2

> <r_glide_res:A16_dist>
1.7298027873897

> <r_glide_res:A16_Eint>
-51.0343949229893

> <s_m_source_file>
ligprep_Nicaido_neutral.maegz

> <i_m_source_file_index>
1

> <i_lp_mmshare_version>
58128

> <i_f3d_flags>
0

> <s_lp_Force_Field>
S-OPLS

> <r_lp_Energy>
24.277434

> <b_lp_Chiralities_Consistent>
1

> <s_lp_Variant>
Cefacetrile-1

> <s_epik_input>
W0NIM11DKD1PKU9bQ0gyXUMoPUMxQyg9TylbT0hdKVtDSDJdU1tDQEhdKE4xMilbQ0BIXShDMj1PKVtOSF1DKD1PKVtDSDJdQyNO

> <s_epik_cmdline>
J2VwaWtfcHl0aG9uJywgJy1waHQnLCAnMC4wJywgJy1waCcsICc3LjQnLCAnLW50JywgJy1tYScsICc1MDAnLCAnLWltYWUnLCAnPGluZmlsZS5tYWU+JywgJy1vbWFlJywgJzxvdXRmaWxlLm1hZT4n

> <r_lp_tautomer_probability>
1

> <r_epik_Ionization_Penalty>
  0.0000

> <r_epik_Ionization_Penalty_Charging>
  0.0000

> <r_epik_Ionization_Penalty_Neutral>
  0.0000

> <r_epik_State_Penalty>
  0.0000

> <r_epik_Charging_Adjusted_Penalty>
5.96156609429709e-06

> <i_epik_Tot_Q>
-1

> <i_epik_Tot_abs_Q>
1

> <s_epik_Chemistry_Notes>
This compound has an ester and may undergo hydrolysis at high or low pH. This compound contains an acetal/aminal-like group ( X-CH(R)-Y where X, Y are N, S, or O) that may be acid/base labile, releasing an aldehyde.

> <s_m_subgroup_title>
glide-dock_Nicaido_neutral_pv1

> <s_m_subgroupid>
glide-dock_Nicaido_neutral_pv1

> <b_m_subgroup_collapsed>
0

$$$$
Cephalosporin C
                    3D
 Schrodinger Suite 2022-2.
 45 46  0  0  1  0            999 V2000
  -20.2324  -22.8713  -25.2853 O   0  0  0  0  0  0
  -20.1374  -21.6732  -25.5598 C   0  0  0  0  0  0
  -21.1438  -20.8664  -25.9503 O   0  0  0  0  0  0
  -22.4639  -21.3788  -26.0885 C   0  0  0  0  0  0
  -23.2188  -21.3836  -24.7605 C   0  0  0  0  0  0
  -23.6395  -22.5165  -24.1398 C   0  0  0  0  0  0
  -24.2785  -22.4995  -22.8924 N   0  0  0  0  0  0
  -24.2757  -21.3720  -21.9842 C   0  0  2  0  0  0
  -25.2220  -22.1927  -21.0652 C   0  0  2  0  0  0
  -25.1490  -23.2799  -22.1685 C   0  0  0  0  0  0
  -25.6664  -24.3473  -22.4134 O   0  0  0  0  0  0
  -26.5388  -21.5747  -20.8989 N   0  0  0  0  0  0
  -27.7133  -22.2100  -20.7328 C   0  0  0  0  0  0
  -28.9667  -21.3356  -20.8195 C   0  0  0  0  0  0
  -29.4016  -21.0569  -22.2754 C   0  0  0  0  0  0
  -28.4302  -20.1300  -23.0385 C   0  0  0  0  0  0
  -28.7992  -19.7955  -24.4998 C   0  0  2  0  0  0
  -28.7802  -21.0207  -25.4405 C   0  0  0  0  0  0
  -29.5690  -21.0125  -26.4132 O   0  5  0  0  0  0
  -27.9711  -21.9491  -25.2130 O   0  0  0  0  0  0
  -27.8395  -18.7970  -25.0179 N   0  3  0  0  0  0
  -27.8106  -23.4281  -20.5524 O   0  0  0  0  0  0
  -24.7497  -19.8881  -22.9278 S   0  0  0  0  0  0
  -23.4432  -19.9816  -24.1894 C   0  0  0  0  0  0
  -23.4185  -23.9488  -24.7295 C   0  0  0  0  0  0
  -22.7697  -24.7494  -24.0137 O   0  5  0  0  0  0
  -23.9527  -24.1891  -25.8330 O   0  0  0  0  0  0
  -19.2127  -21.0962  -25.5206 H   0  0  0  0  0  0
  -22.4344  -22.3605  -26.5621 H   0  0  0  0  0  0
  -23.0071  -20.7317  -26.7797 H   0  0  0  0  0  0
  -23.2855  -21.2429  -21.5425 H   0  0  0  0  0  0
  -24.7488  -22.4660  -20.1208 H   0  0  0  0  0  0
  -26.5746  -20.5723  -21.0249 H   0  0  0  0  0  0
  -28.8017  -20.4018  -20.2781 H   0  0  0  0  0  0
  -29.7738  -21.8444  -20.2906 H   0  0  0  0  0  0
  -30.3921  -20.5986  -22.2616 H   0  0  0  0  0  0
  -29.5178  -22.0022  -22.8070 H   0  0  0  0  0  0
  -27.4395  -20.5735  -23.0511 H   0  0  0  0  0  0
  -28.3328  -19.2013  -22.4737 H   0  0  0  0  0  0
  -29.7928  -19.3445  -24.5185 H   0  0  0  0  0  0
  -28.1331  -18.4694  -25.9265 H   0  0  0  0  0  0
  -27.7798  -18.0128  -24.3793 H   0  0  0  0  0  0
  -22.5061  -19.6245  -23.7640 H   0  0  0  0  0  0
  -23.7061  -19.2903  -24.9927 H   0  0  0  0  0  0
  -26.9264  -19.2211  -25.0932 H   0  0  0  0  0  0
  1  2  2  0  0  0
  2  3  1  0  0  0
  2 28  1  0  0  0
  3  4  1  0  0  0
  4  5  1  0  0  0
  4 29  1  0  0  0
  4 30  1  0  0  0
  5 24  1  0  0  0
  5  6  2  0  0  0
  6  7  1  0  0  0
  6 25  1  0  0  0
  7 10  1  0  0  0
  7  8  1  0  0  0
  8  9  1  0  0  0
  8 23  1  0  0  0
  8 31  1  0  0  0
  9 10  1  0  0  0
  9 12  1  0  0  0
  9 32  1  0  0  0
 10 11  2  0  0  0
 12 13  1  0  0  0
 12 33  1  0  0  0
 13 14  1  0  0  0
 13 22  2  0  0  0
 14 15  1  0  0  0
 14 34  1  0  0  0
 14 35  1  0  0  0
 15 16  1  0  0  0
 15 36  1  0  0  0
 15 37  1  0  0  0
 16 17  1  0  0  0
 16 38  1  0  0  0
 16 39  1  0  0  0
 17 18  1  0  0  0
 17 21  1  0  0  0
 17 40  1  0  0  0
 18 19  1  0  0  0
 18 20  2  0  0  0
 21 41  1  0  0  0
 21 42  1  0  0  0
 21 45  1  0  0  0
 23 24  1  0  0  0
 24 43  1  0  0  0
 24 44  1  0  0  0
 25 26  1  0  0  0
 25 27  2  0  0  0
M  CHG  3  19  -1  21   1  26  -1
M  END
> <s_m_entry_id>
27506

> <s_m_entry_name>
data_maestro.25

> <s_m_Source_Path>
C:\Users\olshana1\Git\GramNeg-Accumulation\Gram Negative Permeation - OmpF

> <s_m_Source_File>
data_maestro.csv

> <i_m_Source_File_Index>
25

> <s_m_job_name>
glide-dock_Nicaido_neutral

> <s_i_glide_gridfile>
3POX-grid

> <i_i_glide_lignum>
32

> <i_i_glide_rotatable_bonds>
11

> <r_i_docking_score>
-4.80755848579437

> <r_i_glide_ligand_efficiency>
-0.178057721696088

> <r_i_glide_ligand_efficiency_sa>
-0.534173164501414

> <r_i_glide_ligand_efficiency_ln>
-1.11912035669688

> <r_i_glide_gscore>
-4.80755848579437

> <r_i_glide_lipo>
0

> <r_i_glide_hbond>
-0.945226107780414

> <r_i_glide_metal>
0

> <r_i_glide_rewards>
-0.73789422009456

> <r_i_glide_evdw>
-18.8016376495361

> <r_i_glide_ecoul>
-17.7606468200684

> <r_i_glide_erotb>
0.97830559423054

> <r_i_glide_esite>
-0.498564846662874

> <r_i_glide_emodel>
-66.5400547983425

> <r_i_glide_energy>
-36.5622844696045

> <r_i_glide_einternal>
2.82392334938049

> <i_i_glide_confnum>
314

> <i_i_glide_posenum>
306

> <r_i_glide_eff_state_penalty>
0

> <r_glide_res:A132_vdw>
0.118876340983769

> <r_glide_res:A132_coul>
-41.7443594279803

> <r_glide_res:A132_hbond>
-0.143615819577196

> <r_glide_res:A132_dist>
2.0578025156651

> <r_glide_res:A132_Eint>
-41.7690989065737

> <r_glide_res:A117_vdw>
-3.97581972354873

> <r_glide_res:A117_coul>
-5.63743374451407

> <r_glide_res:A117_hbond>
0

> <r_glide_res:A117_dist>
2.2335627410101

> <r_glide_res:A117_Eint>
-9.6132534680628

> <r_glide_res:A113_vdw>
-1.69035600814912

> <r_glide_res:A113_coul>
14.2542081673135

> <r_glide_res:A113_hbond>
0

> <r_glide_res:A113_dist>
2.60563487706851

> <r_glide_res:A113_Eint>
12.5638521591644

> <r_glide_res:A82_vdw>
-1.66432223252382

> <r_glide_res:A82_coul>
-49.9904973967371

> <r_glide_res:A82_hbond>
-0.0777467686441842

> <r_glide_res:A82_dist>
2.16260001946298

> <r_glide_res:A82_Eint>
-51.7325663979051

> <r_glide_res:A42_vdw>
0.943971208450811

> <r_glide_res:A42_coul>
-63.0106641814558

> <r_glide_res:A42_hbond>
-0.323863519559034

> <r_glide_res:A42_dist>
1.80774820085421

> <r_glide_res:A42_Eint>
-62.3905564925641

> <r_glide_res:A16_vdw>
0.756425631190519

> <r_glide_res:A16_coul>
-37.7371973119135

> <r_glide_res:A16_hbond>
-0.2

> <r_glide_res:A16_dist>
1.85941025423783

> <r_glide_res:A16_Eint>
-37.180771680723

> <s_m_source_file>
ligprep_Nicaido_neutral.maegz

> <i_m_source_file_index>
25

> <i_lp_mmshare_version>
58128

> <i_f3d_flags>
0

> <s_lp_Force_Field>
S-OPLS

> <r_lp_Energy>
27.061927

> <b_lp_Chiralities_Consistent>
1

> <s_lp_Variant>
Cephalosporin C-1

> <s_epik_input>
Tz1bQ0hdT1tDSDJdQyg9QzFDKD1PKVtPSF0pW0NIMl1TW0NASF0oTjEyKVtDQEhdKEMyPU8pW05IXUMoPU8pW0NIMl1bQ0gyXVtDSDJdW0NAQEhdKFtOSDJdKUMoPU8pW09IXQ==

> <s_epik_cmdline>
J2VwaWtfcHl0aG9uJywgJy1waHQnLCAnMC4wJywgJy1waCcsICc3LjQnLCAnLW50JywgJy1tYScsICc1MDAnLCAnLWltYWUnLCAnPGluZmlsZS5tYWU+JywgJy1vbWFlJywgJzxvdXRmaWxlLm1hZT4n

> <r_lp_tautomer_probability>
1

> <r_epik_Ionization_Penalty>
  0.0034

> <r_epik_Ionization_Penalty_Charging>
  0.0034

> <r_epik_Ionization_Penalty_Neutral>
  0.0000

> <r_epik_State_Penalty>
  0.0000

> <r_epik_Charging_Adjusted_Penalty>
0.00339038450865705

> <i_epik_Tot_Q>
-1

> <i_epik_Tot_abs_Q>
3

> <s_epik_Chemistry_Notes>
This compound has an ester and may undergo hydrolysis at high or low pH. This compound contains an acetal/aminal-like group ( X-CH(R)-Y where X, Y are N, S, or O) that may be acid/base labile, releasing an aldehyde.

> <s_m_subgroup_title>
glide-dock_Nicaido_neutral_pv1

> <s_m_subgroupid>
glide-dock_Nicaido_neutral_pv1

> <b_m_subgroup_collapsed>
0

$$$$
Cyclacillin
                    3D
 Schrodinger Suite 2022-2.
 46 48  0  0  1  0            999 V2000
  -21.7063  -23.5487  -22.9907 C   0  0  0  0  0  0
  -22.4140  -23.0343  -24.2605 C   0  0  0  0  0  0
  -23.7841  -23.7269  -24.5936 C   0  0  2  0  0  0
  -24.7762  -22.8572  -24.0062 N   0  0  0  0  0  0
  -24.6411  -21.4167  -24.0395 C   0  0  2  0  0  0
  -22.8306  -21.2708  -23.9411 S   0  0  0  0  0  0
  -25.6176  -21.3525  -22.8541 C   0  0  2  0  0  0
  -25.7440  -22.8796  -23.0260 C   0  0  0  0  0  0
  -26.3669  -23.7840  -22.5061 O   0  0  0  0  0  0
  -26.8218  -20.5565  -23.1377 N   0  0  0  0  0  0
  -27.6735  -20.6522  -24.1792 C   0  0  0  0  0  0
  -28.7207  -19.5212  -24.3318 C   0  0  0  0  0  0
  -29.8198  -19.8736  -25.3731 C   0  0  0  0  0  0
  -30.7769  -20.9824  -24.8876 C   0  0  0  0  0  0
  -31.4170  -20.6195  -23.5380 C   0  0  0  0  0  0
  -30.3531  -20.2776  -22.4839 C   0  0  0  0  0  0
  -29.4195  -19.1629  -22.9904 C   0  0  0  0  0  0
  -27.9689  -18.3496  -24.8134 N   0  3  0  0  0  0
  -27.6004  -21.5494  -25.0263 O   0  0  0  0  0  0
  -23.9689  -25.2249  -24.2771 C   0  0  0  0  0  0
  -24.3690  -25.9498  -25.2133 O   0  5  0  0  0  0
  -23.7145  -25.6557  -23.1322 O   0  0  0  0  0  0
  -21.4547  -23.1268  -25.4585 C   0  0  0  0  0  0
  -21.3472  -24.5708  -23.1053 H   0  0  0  0  0  0
  -22.3746  -23.5212  -22.1291 H   0  0  0  0  0  0
  -20.8390  -22.9322  -22.7509 H   0  0  0  0  0  0
  -23.9510  -23.6249  -25.6667 H   0  0  0  0  0  0
  -25.0046  -20.9753  -24.9688 H   0  0  0  0  0  0
  -25.1166  -21.0518  -21.9333 H   0  0  0  0  0  0
  -26.9877  -19.8029  -22.4841 H   0  0  0  0  0  0
  -30.4121  -18.9818  -25.5859 H   0  0  0  0  0  0
  -29.3721  -20.1622  -26.3248 H   0  0  0  0  0  0
  -31.5597  -21.1466  -25.6278 H   0  0  0  0  0  0
  -30.2460  -21.9301  -24.7925 H   0  0  0  0  0  0
  -32.0848  -19.7659  -23.6654 H   0  0  0  0  0  0
  -32.0368  -21.4446  -23.1841 H   0  0  0  0  0  0
  -30.8378  -19.9603  -21.5595 H   0  0  0  0  0  0
  -29.7791  -21.1697  -22.2310 H   0  0  0  0  0  0
  -28.6956  -18.9154  -22.2119 H   0  0  0  0  0  0
  -30.0091  -18.2527  -23.1201 H   0  0  0  0  0  0
  -28.6026  -17.6125  -25.0877 H   0  0  0  0  0  0
  -27.3828  -17.9841  -24.0706 H   0  0  0  0  0  0
  -21.2286  -24.1612  -25.7147 H   0  0  0  0  0  0
  -21.8808  -22.6582  -26.3469 H   0  0  0  0  0  0
  -20.5093  -22.6241  -25.2507 H   0  0  0  0  0  0
  -27.3761  -18.5749  -25.5991 H   0  0  0  0  0  0
  1  2  1  0  0  0
  1 24  1  0  0  0
  1 25  1  0  0  0
  1 26  1  0  0  0
  2  6  1  0  0  0
  2  3  1  0  0  0
  2 23  1  0  0  0
  3  4  1  0  0  0
  3 20  1  0  0  0
  3 27  1  0  0  0
  4  8  1  0  0  0
  4  5  1  0  0  0
  5  6  1  0  0  0
  5  7  1  0  0  0
  5 28  1  0  0  0
  7  8  1  0  0  0
  7 10  1  0  0  0
  7 29  1  0  0  0
  8  9  2  0  0  0
 10 11  1  0  0  0
 10 30  1  0  0  0
 11 12  1  0  0  0
 11 19  2  0  0  0
 12 17  1  0  0  0
 12 13  1  0  0  0
 12 18  1  0  0  0
 13 14  1  0  0  0
 13 31  1  0  0  0
 13 32  1  0  0  0
 14 15  1  0  0  0
 14 33  1  0  0  0
 14 34  1  0  0  0
 15 16  1  0  0  0
 15 35  1  0  0  0
 15 36  1  0  0  0
 16 17  1  0  0  0
 16 37  1  0  0  0
 16 38  1  0  0  0
 17 39  1  0  0  0
 17 40  1  0  0  0
 18 41  1  0  0  0
 18 42  1  0  0  0
 18 46  1  0  0  0
 20 21  1  0  0  0
 20 22  2  0  0  0
 23 43  1  0  0  0
 23 44  1  0  0  0
 23 45  1  0  0  0
M  CHG  2  18   1  21  -1
M  END
> <s_m_entry_id>
27507

> <s_m_entry_name>
data_maestro.19

> <s_m_Source_Path>
C:\Users\olshana1\Git\GramNeg-Accumulation\Gram Negative Permeation - OmpF

> <s_m_Source_File>
data_maestro.csv

> <i_m_Source_File_Index>
19

> <s_m_job_name>
glide-dock_Nicaido_neutral

> <s_i_glide_gridfile>
3POX-grid

> <i_i_glide_lignum>
24

> <i_i_glide_rotatable_bonds>
4

> <r_i_docking_score>
-4.80467981714041

> <r_i_glide_ligand_efficiency>
-0.208899122484366

> <r_i_glide_ligand_efficiency_sa>
-0.594081315932342

> <r_i_glide_ligand_efficiency_ln>
-1.16181514621244

> <r_i_glide_gscore>
-5.00797981714041

> <r_i_glide_lipo>
0

> <r_i_glide_hbond>
-0.52

> <r_i_glide_metal>
0

> <r_i_glide_rewards>
-1.23857696377822

> <r_i_glide_evdw>
-20.4563426971436

> <r_i_glide_ecoul>
-15.167013168335

> <r_i_glide_erotb>
0.487675558125352

> <r_i_glide_esite>
-0.439209301380121

> <r_i_glide_emodel>
-61.7540656547234

> <r_i_glide_energy>
-35.6233558654785

> <r_i_glide_einternal>
4.89924812316895

> <i_i_glide_confnum>
2

> <i_i_glide_posenum>
210

> <r_i_glide_eff_state_penalty>
0.2033

> <r_glide_res:A132_vdw>
-1.61303001238103

> <r_glide_res:A132_coul>
-22.5834587473084

> <r_glide_res:A132_hbond>
0

> <r_glide_res:A132_dist>
2.54516209537252

> <r_glide_res:A132_Eint>
-24.1964887596894

> <r_glide_res:A117_vdw>
-1.88087192064828

> <r_glide_res:A117_coul>
-39.0365678915212

> <r_glide_res:A117_hbond>
0

> <r_glide_res:A117_dist>
1.84162835052225

> <r_glide_res:A117_Eint>
-40.9174398121695

> <r_glide_res:A113_vdw>
-1.02056479145985

> <r_glide_res:A113_coul>
-7.43282004186705

> <r_glide_res:A113_hbond>
0

> <r_glide_res:A113_dist>
2.9041039022159

> <r_glide_res:A113_Eint>
-8.4533848333269

> <r_glide_res:A82_vdw>
-1.13450703643432

> <r_glide_res:A82_coul>
-31.0606979662188

> <r_glide_res:A82_hbond>
-0.36

> <r_glide_res:A82_dist>
1.90632303154336

> <r_glide_res:A82_Eint>
-32.5552050026532

> <r_glide_res:A42_vdw>
-2.86869101332583

> <r_glide_res:A42_coul>
-13.3139423853049

> <r_glide_res:A42_hbond>
-0.16

> <r_glide_res:A42_dist>
1.99081203527501

> <r_glide_res:A42_Eint>
-16.3426333986307

> <r_glide_res:A16_vdw>
-0.840896154773991

> <r_glide_res:A16_coul>
9.64267712861665

> <r_glide_res:A16_hbond>
0

> <r_glide_res:A16_dist>
2.25069017590104

> <r_glide_res:A16_Eint>
8.80178097384265

> <s_m_source_file>
ligprep_Nicaido_neutral.maegz

> <i_m_source_file_index>
19

> <i_lp_mmshare_version>
58128

> <i_f3d_flags>
0

> <s_lp_Force_Field>
S-OPLS

> <r_lp_Energy>
30.580191

> <b_lp_Chiralities_Consistent>
1

> <s_lp_Variant>
Cyclacillin-1

> <s_epik_input>
W09IXUMoPU8pW0NAQEhdMUMoW0NIM10pKFtDSDNdKVNbQ0BASF0oTjEyKVtDQEhdKEMyPU8pW05IXUMoPU8pQzMoW05IMl0pW0NIMl1bQ0gyXVtDSDJdW0NIMl1bQ0gyXTM=

> <s_epik_cmdline>
J2VwaWtfcHl0aG9uJywgJy1waHQnLCAnMC4wJywgJy1waCcsICc3LjQnLCAnLW50JywgJy1tYScsICc1MDAnLCAnLWltYWUnLCAnPGluZmlsZS5tYWU+JywgJy1vbWFlJywgJzxvdXRmaWxlLm1hZT4n

> <r_epik_Ionization_Penalty>
  0.2033

> <r_epik_Ionization_Penalty_Charging>
  0.2033

> <r_epik_Ionization_Penalty_Neutral>
  0.0000

> <r_epik_State_Penalty>
  0.2033

> <r_epik_Charging_Adjusted_Penalty>
0.406545099244061

> <i_epik_Tot_Q>
0

> <i_epik_Tot_abs_Q>
2

> <s_epik_Chemistry_Notes>
This compound contains an acetal/aminal-like group ( X-CH(R)-Y where X, Y are N, S, or O) that may be acid/base labile, releasing an aldehyde.

> <s_m_subgroup_title>
glide-dock_Nicaido_neutral_pv1

> <s_m_subgroupid>
glide-dock_Nicaido_neutral_pv1

> <b_m_subgroup_collapsed>
0

$$$$
Cefazolin
                    3D
 Schrodinger Suite 2022-2.
 42 45  0  0  1  0            999 V2000
  -23.1741  -22.2777  -15.2134 C   0  0  0  0  0  0
  -23.8062  -22.3824  -16.5516 C   0  0  0  0  0  0
  -23.6648  -23.4569  -17.3377 N   0  0  0  0  0  0
  -24.2762  -23.2791  -18.5710 N   0  0  0  0  0  0
  -24.8668  -22.0809  -18.6703 C   0  0  0  0  0  0
  -24.7666  -21.0809  -17.2307 S   0  0  0  0  0  0
  -25.6102  -21.4884  -20.1451 S   0  0  0  0  0  0
  -27.3201  -21.3381  -19.5488 C   0  0  0  0  0  0
  -28.2715  -20.9683  -20.6835 C   0  0  0  0  0  0
  -28.7249  -21.8422  -21.6356 C   0  0  0  0  0  0
  -29.5776  -21.3809  -22.6645 N   0  0  0  0  0  0
  -30.5050  -20.2892  -22.4309 C   0  0  2  0  0  0
  -31.0455  -20.5074  -23.8527 C   0  0  2  0  0  0
  -29.9502  -21.5935  -23.9911 C   0  0  0  0  0  0
  -29.5434  -22.3182  -24.8785 O   0  0  0  0  0  0
  -30.8055  -19.3319  -24.6877 N   0  0  0  0  0  0
  -31.2561  -19.1665  -25.9344 C   0  0  0  0  0  0
  -30.8081  -17.8964  -26.6660 C   0  0  0  0  0  0
  -31.8691  -17.3215  -27.4757 N   0  0  0  0  0  0
  -32.7394  -16.3432  -27.2135 C   0  0  0  0  0  0
  -33.5520  -16.1241  -28.2373 N   0  0  0  0  0  0
  -33.1319  -17.0505  -29.1780 N   0  0  0  0  0  0
  -32.1290  -17.7597  -28.7353 N   0  0  0  0  0  0
  -31.9672  -20.0008  -26.4934 O   0  0  0  0  0  0
  -29.5689  -18.8002  -22.0128 S   0  0  0  0  0  0
  -28.5800  -19.4633  -20.6512 C   0  0  0  0  0  0
  -28.2856  -23.3744  -21.7029 C   0  0  0  0  0  0
  -27.9484  -23.9492  -20.6452 O   0  5  0  0  0  0
  -28.3087  -23.9491  -22.8136 O   0  0  0  0  0  0
  -23.8024  -22.7589  -14.4649 H   0  0  0  0  0  0
  -22.1934  -22.7476  -15.2158 H   0  0  0  0  0  0
  -23.0461  -21.2300  -14.9424 H   0  0  0  0  0  0
  -27.3510  -20.5642  -18.7788 H   0  0  0  0  0  0
  -27.6370  -22.2428  -19.0326 H   0  0  0  0  0  0
  -31.2274  -20.5376  -21.6495 H   0  0  0  0  0  0
  -32.0741  -20.8702  -23.8599 H   0  0  0  0  0  0
  -30.2221  -18.6140  -24.2753 H   0  0  0  0  0  0
  -29.9570  -18.1267  -27.3079 H   0  0  0  0  0  0
  -30.4711  -17.1489  -25.9483 H   0  0  0  0  0  0
  -32.7705  -15.7933  -26.2837 H   0  0  0  0  0  0
  -29.0837  -19.2101  -19.7205 H   0  0  0  0  0  0
  -27.6411  -18.9085  -20.6406 H   0  0  0  0  0  0
  1  2  1  0  0  0
  1 30  1  0  0  0
  1 31  1  0  0  0
  1 32  1  0  0  0
  2  6  1  0  0  0
  2  3  2  0  0  0
  3  4  1  0  0  0
  4  5  2  0  0  0
  5  6  1  0  0  0
  5  7  1  0  0  0
  7  8  1  0  0  0
  8  9  1  0  0  0
  8 33  1  0  0  0
  8 34  1  0  0  0
  9 26  1  0  0  0
  9 10  2  0  0  0
 10 11  1  0  0  0
 10 27  1  0  0  0
 11 14  1  0  0  0
 11 12  1  0  0  0
 12 13  1  0  0  0
 12 25  1  0  0  0
 12 35  1  0  0  0
 13 14  1  0  0  0
 13 16  1  0  0  0
 13 36  1  0  0  0
 14 15  2  0  0  0
 16 17  1  0  0  0
 16 37  1  0  0  0
 17 18  1  0  0  0
 17 24  2  0  0  0
 18 19  1  0  0  0
 18 38  1  0  0  0
 18 39  1  0  0  0
 19 23  1  0  0  0
 19 20  1  0  0  0
 20 21  2  0  0  0
 20 40  1  0  0  0
 21 22  1  0  0  0
 22 23  2  0  0  0
 25 26  1  0  0  0
 26 41  1  0  0  0
 26 42  1  0  0  0
 27 28  1  0  0  0
 27 29  2  0  0  0
M  CHG  1  28  -1
M  END
> <s_m_entry_id>
27508

> <s_m_entry_name>
data_maestro.2

> <s_m_Source_Path>
C:\Users\olshana1\Git\GramNeg-Accumulation\Gram Negative Permeation - OmpF

> <s_m_Source_File>
data_maestro.csv

> <i_m_Source_File_Index>
2

> <s_m_job_name>
glide-dock_Nicaido_neutral

> <s_i_glide_gridfile>
3POX-grid

> <i_i_glide_lignum>
2

> <i_i_glide_rotatable_bonds>
8

> <r_i_docking_score>
-4.80201938763912

> <r_i_glide_ligand_efficiency>
-0.165586875435832

> <r_i_glide_ligand_efficiency_sa>
-0.508735342943232

> <r_i_glide_ligand_efficiency_ln>
-1.09954067106418

> <r_i_glide_gscore>
-4.80201938763912

> <r_i_glide_lipo>
0

> <r_i_glide_hbond>
-0.599052865482016

> <r_i_glide_metal>
0

> <r_i_glide_rewards>
-0.317020607532096

> <r_i_glide_evdw>
-35.3403129577637

> <r_i_glide_ecoul>
-14.3539686203003

> <r_i_glide_erotb>
0.585623573400065

> <r_i_glide_esite>
-0.551458547091848

> <r_i_glide_emodel>
-74.7767887257613

> <r_i_glide_energy>
-49.694281578064

> <r_i_glide_einternal>
3.31846308708191

> <i_i_glide_confnum>
176

> <i_i_glide_posenum>
38

> <r_i_glide_eff_state_penalty>
0

> <r_glide_res:A132_vdw>
-0.148928065051519

> <r_glide_res:A132_coul>
-48.1637821107268

> <r_glide_res:A132_hbond>
-0.2

> <r_glide_res:A132_dist>
1.77775618300165

> <r_glide_res:A132_Eint>
-48.5127101757784

> <r_glide_res:A117_vdw>
-2.4532307368396

> <r_glide_res:A117_coul>
17.1384233236646

> <r_glide_res:A117_hbond>
0

> <r_glide_res:A117_dist>
2.83260818904873

> <r_glide_res:A117_Eint>
14.685192586825

> <r_glide_res:A113_vdw>
-2.66714514578463

> <r_glide_res:A113_coul>
20.89621835655

> <r_glide_res:A113_hbond>
0

> <r_glide_res:A113_dist>
2.1976929213581

> <r_glide_res:A113_Eint>
18.2290732107654

> <r_glide_res:A82_vdw>
-0.371778436270325

> <r_glide_res:A82_coul>
-49.2585832891747

> <r_glide_res:A82_hbond>
-0.301104366303262

> <r_glide_res:A82_dist>
1.91447329613558

> <r_glide_res:A82_Eint>
-49.9314660917483

> <r_glide_res:A42_vdw>
-1.31160844929098

> <r_glide_res:A42_coul>
-36.9215722918051

> <r_glide_res:A42_hbond>
-0.0979484991787535

> <r_glide_res:A42_dist>
2.25512875205312

> <r_glide_res:A42_Eint>
-38.3311292402748

> <r_glide_res:A16_vdw>
-1.33532360721819

> <r_glide_res:A16_coul>
-31.4187130046089

> <r_glide_res:A16_hbond>
0

> <r_glide_res:A16_dist>
2.59303774186001

> <r_glide_res:A16_Eint>
-32.7540366118271

> <s_m_source_file>
ligprep_Nicaido_neutral.maegz

> <i_m_source_file_index>
2

> <i_lp_mmshare_version>
58128

> <i_f3d_flags>
0

> <s_lp_Force_Field>
S-OPLS

> <r_lp_Energy>
37.420105

> <b_lp_Chiralities_Consistent>
1

> <s_lp_Variant>
Cefazolin-1

> <s_epik_input>
W0NIM11jMW5uYyhzMSlTW0NIMl1DKD1DMkMoPU8pW09IXSlbQ0gyXVNbQ0BIXShOMjMpW0NASF0oQzM9TylbTkhdQyg9TylbQ0gyXW40W2NIXW5ubjQ=

> <s_epik_cmdline>
J2VwaWtfcHl0aG9uJywgJy1waHQnLCAnMC4wJywgJy1waCcsICc3LjQnLCAnLW50JywgJy1tYScsICc1MDAnLCAnLWltYWUnLCAnPGluZmlsZS5tYWU+JywgJy1vbWFlJywgJzxvdXRmaWxlLm1hZT4n

> <r_lp_tautomer_probability>
1

> <r_epik_Ionization_Penalty>
  0.0000

> <r_epik_Ionization_Penalty_Charging>
  0.0000

> <r_epik_Ionization_Penalty_Neutral>
  0.0000

> <r_epik_State_Penalty>
  0.0000

> <r_epik_Charging_Adjusted_Penalty>
8.33047029083912e-06

> <i_epik_Tot_Q>
-1

> <i_epik_Tot_abs_Q>
1

> <s_epik_Chemistry_Notes>
This compound contains an acetal/aminal-like group ( X-CH(R)-Y where X, Y are N, S, or O) that may be acid/base labile, releasing an aldehyde.

> <s_m_subgroup_title>
glide-dock_Nicaido_neutral_pv1

> <s_m_subgroupid>
glide-dock_Nicaido_neutral_pv1

> <b_m_subgroup_collapsed>
0

$$$$
Cephalosporin C
                    3D
 Schrodinger Suite 2022-2.
 45 46  0  0  1  0            999 V2000
  -18.1915  -24.3495  -14.8142 O   0  0  0  0  0  0
  -18.6750  -23.2521  -14.5274 C   0  0  0  0  0  0
  -19.6300  -22.6003  -15.2135 O   0  0  0  0  0  0
  -20.1330  -23.1224  -16.4365 C   0  0  0  0  0  0
  -21.6318  -22.8663  -16.5980 C   0  0  0  0  0  0
  -22.4900  -23.7690  -17.1483 C   0  0  0  0  0  0
  -23.8613  -23.4904  -17.3353 N   0  0  0  0  0  0
  -24.5538  -22.4492  -16.5973 C   0  0  2  0  0  0
  -25.8254  -22.8012  -17.3924 C   0  0  2  0  0  0
  -24.9772  -23.9293  -18.0373 C   0  0  0  0  0  0
  -25.1567  -24.8449  -18.8135 O   0  0  0  0  0  0
  -26.2456  -21.7172  -18.2729 N   0  0  0  0  0  0
  -27.2900  -21.7804  -19.1084 C   0  0  0  0  0  0
  -27.7727  -20.4321  -19.6570 C   0  0  0  0  0  0
  -28.6450  -20.4927  -20.9258 C   0  0  0  0  0  0
  -27.9492  -21.1169  -22.1502 C   0  0  0  0  0  0
  -28.6843  -20.8173  -23.4831 C   0  0  2  0  0  0
  -28.4543  -21.8809  -24.5797 C   0  0  0  0  0  0
  -27.5692  -22.7495  -24.4133 O   0  5  0  0  0  0
  -29.1646  -21.8156  -25.6100 O   0  0  0  0  0  0
  -28.2859  -19.4967  -24.0093 N   0  3  0  0  0  0
  -27.8479  -22.8389  -19.4059 O   0  0  0  0  0  0
  -23.6236  -20.9027  -16.8140 S   0  0  0  0  0  0
  -22.0638  -21.4863  -16.1021 C   0  0  0  0  0  0
  -21.9835  -25.1492  -17.6841 C   0  0  0  0  0  0
  -21.5688  -25.9493  -16.8131 O   0  5  0  0  0  0
  -22.0541  -25.3437  -18.9165 O   0  0  0  0  0  0
  -18.4009  -22.6643  -13.6515 H   0  0  0  0  0  0
  -19.8941  -24.1788  -16.5388 H   0  0  0  0  0  0
  -19.6168  -22.6112  -17.2493 H   0  0  0  0  0  0
  -24.6394  -22.7093  -15.5398 H   0  0  0  0  0  0
  -26.6377  -23.1495  -16.7601 H   0  0  0  0  0  0
  -25.8329  -20.8124  -18.0938 H   0  0  0  0  0  0
  -26.9107  -19.7896  -19.8406 H   0  0  0  0  0  0
  -28.3476  -19.9495  -18.8647 H   0  0  0  0  0  0
  -28.9504  -19.4717  -21.1585 H   0  0  0  0  0  0
  -29.5693  -21.0315  -20.7096 H   0  0  0  0  0  0
  -27.8924  -22.1905  -21.9710 H   0  0  0  0  0  0
  -26.9170  -20.7693  -22.2123 H   0  0  0  0  0  0
  -29.7584  -20.7924  -23.2920 H   0  0  0  0  0  0
  -28.8089  -19.3094  -24.8519 H   0  0  0  0  0  0
  -28.4708  -18.7780  -23.3228 H   0  0  0  0  0  0
  -22.1579  -21.5170  -15.0159 H   0  0  0  0  0  0
  -21.2957  -20.7500  -16.3403 H   0  0  0  0  0  0
  -27.2993  -19.5022  -24.2243 H   0  0  0  0  0  0
  1  2  2  0  0  0
  2  3  1  0  0  0
  2 28  1  0  0  0
  3  4  1  0  0  0
  4  5  1  0  0  0
  4 29  1  0  0  0
  4 30  1  0  0  0
  5 24  1  0  0  0
  5  6  2  0  0  0
  6  7  1  0  0  0
  6 25  1  0  0  0
  7 10  1  0  0  0
  7  8  1  0  0  0
  8  9  1  0  0  0
  8 23  1  0  0  0
  8 31  1  0  0  0
  9 10  1  0  0  0
  9 12  1  0  0  0
  9 32  1  0  0  0
 10 11  2  0  0  0
 12 13  1  0  0  0
 12 33  1  0  0  0
 13 14  1  0  0  0
 13 22  2  0  0  0
 14 15  1  0  0  0
 14 34  1  0  0  0
 14 35  1  0  0  0
 15 16  1  0  0  0
 15 36  1  0  0  0
 15 37  1  0  0  0
 16 17  1  0  0  0
 16 38  1  0  0  0
 16 39  1  0  0  0
 17 18  1  0  0  0
 17 21  1  0  0  0
 17 40  1  0  0  0
 18 19  1  0  0  0
 18 20  2  0  0  0
 21 41  1  0  0  0
 21 42  1  0  0  0
 21 45  1  0  0  0
 23 24  1  0  0  0
 24 43  1  0  0  0
 24 44  1  0  0  0
 25 26  1  0  0  0
 25 27  2  0  0  0
M  CHG  3  19  -1  21   1  26  -1
M  END
> <s_m_entry_id>
27509

> <s_m_entry_name>
data_maestro.25

> <s_m_Source_Path>
C:\Users\olshana1\Git\GramNeg-Accumulation\Gram Negative Permeation - OmpF

> <s_m_Source_File>
data_maestro.csv

> <i_m_Source_File_Index>
25

> <s_m_job_name>
glide-dock_Nicaido_neutral

> <s_i_glide_gridfile>
3POX-grid

> <i_i_glide_lignum>
32

> <i_i_glide_rotatable_bonds>
11

> <r_i_docking_score>
-4.7987054245518

> <r_i_glide_ligand_efficiency>
-0.177729830538956

> <r_i_glide_ligand_efficiency_sa>
-0.533189491031098

> <r_i_glide_ligand_efficiency_ln>
-1.11705950999373

> <r_i_glide_gscore>
-4.7987054245518

> <r_i_glide_lipo>
0

> <r_i_glide_hbond>
-0.727450920922303

> <r_i_glide_metal>
0

> <r_i_glide_rewards>
-0.660965325104966

> <r_i_glide_evdw>
-26.9074935913086

> <r_i_glide_ecoul>
-16.9405040740967

> <r_i_glide_erotb>
0.97830559423054

> <r_i_glide_esite>
-0.502144482075143

> <r_i_glide_emodel>
-69.0562598894015

> <r_i_glide_energy>
-43.8479976654053

> <r_i_glide_einternal>
12.1550874710083

> <i_i_glide_confnum>
165

> <i_i_glide_posenum>
361

> <r_i_glide_eff_state_penalty>
0

> <r_glide_res:A132_vdw>
-1.5371694699476

> <r_glide_res:A132_coul>
-39.4154443595136

> <r_glide_res:A132_hbond>
-0.0167793997263478

> <r_glide_res:A132_dist>
2.40854336354441

> <r_glide_res:A132_Eint>
-40.9693932291876

> <r_glide_res:A117_vdw>
-1.46871642316952

> <r_glide_res:A117_coul>
-1.41146275376174

> <r_glide_res:A117_hbond>
0

> <r_glide_res:A117_dist>
2.47929296378252

> <r_glide_res:A117_Eint>
-2.88017917693127

> <r_glide_res:A113_vdw>
-2.29791334026632

> <r_glide_res:A113_coul>
13.097903790689

> <r_glide_res:A113_hbond>
0

> <r_glide_res:A113_dist>
2.54886800651313

> <r_glide_res:A113_Eint>
10.7999904504227

> <r_glide_res:A82_vdw>
-1.12235437627934

> <r_glide_res:A82_coul>
-35.0754938605554

> <r_glide_res:A82_hbond>
0

> <r_glide_res:A82_dist>
2.65378113755163

> <r_glide_res:A82_Eint>
-36.1978482368347

> <r_glide_res:A42_vdw>
1.27491017513096

> <r_glide_res:A42_coul>
-42.2006288570148

> <r_glide_res:A42_hbond>
-0.368173443097224

> <r_glide_res:A42_dist>
1.90049964125176

> <r_glide_res:A42_Eint>
-41.293892124981

> <r_glide_res:A16_vdw>
-0.557549385455484

> <r_glide_res:A16_coul>
-20.7311132314124

> <r_glide_res:A16_hbond>
0

> <r_glide_res:A16_dist>
2.82828461774614

> <r_glide_res:A16_Eint>
-21.2886626168678

> <s_m_source_file>
ligprep_Nicaido_neutral.maegz

> <i_m_source_file_index>
25

> <i_lp_mmshare_version>
58128

> <i_f3d_flags>
0

> <s_lp_Force_Field>
S-OPLS

> <r_lp_Energy>
27.061927

> <b_lp_Chiralities_Consistent>
1

> <s_lp_Variant>
Cephalosporin C-1

> <s_epik_input>
Tz1bQ0hdT1tDSDJdQyg9QzFDKD1PKVtPSF0pW0NIMl1TW0NASF0oTjEyKVtDQEhdKEMyPU8pW05IXUMoPU8pW0NIMl1bQ0gyXVtDSDJdW0NAQEhdKFtOSDJdKUMoPU8pW09IXQ==

> <s_epik_cmdline>
J2VwaWtfcHl0aG9uJywgJy1waHQnLCAnMC4wJywgJy1waCcsICc3LjQnLCAnLW50JywgJy1tYScsICc1MDAnLCAnLWltYWUnLCAnPGluZmlsZS5tYWU+JywgJy1vbWFlJywgJzxvdXRmaWxlLm1hZT4n

> <r_lp_tautomer_probability>
1

> <r_epik_Ionization_Penalty>
  0.0034

> <r_epik_Ionization_Penalty_Charging>
  0.0034

> <r_epik_Ionization_Penalty_Neutral>
  0.0000

> <r_epik_State_Penalty>
  0.0000

> <r_epik_Charging_Adjusted_Penalty>
0.00339038450865705

> <i_epik_Tot_Q>
-1

> <i_epik_Tot_abs_Q>
3

> <s_epik_Chemistry_Notes>
This compound has an ester and may undergo hydrolysis at high or low pH. This compound contains an acetal/aminal-like group ( X-CH(R)-Y where X, Y are N, S, or O) that may be acid/base labile, releasing an aldehyde.

> <s_m_subgroup_title>
glide-dock_Nicaido_neutral_pv1

> <s_m_subgroupid>
glide-dock_Nicaido_neutral_pv1

> <b_m_subgroup_collapsed>
0

$$$$
Ceftazidime
                    3D
 Schrodinger Suite 2022-2.
 58 61  0  0  1  0            999 V2000
  -22.6634  -21.6603  -23.9862 C   0  0  0  0  0  0
  -23.8079  -22.4513  -24.6819 C   0  0  0  0  0  0
  -23.9653  -21.8776  -26.1027 C   0  0  0  0  0  0
  -23.4809  -23.9668  -24.7774 C   0  0  0  0  0  0
  -22.3493  -24.3489  -24.4079 O   0  5  0  0  0  0
  -24.3670  -24.7473  -25.2019 O   0  0  0  0  0  0
  -25.0754  -22.2680  -24.0282 O   0  0  0  0  0  0
  -24.9329  -22.4829  -22.6423 N   0  0  0  0  0  0
  -26.0083  -22.6654  -21.9868 C   0  0  0  0  0  0
  -27.4211  -22.8294  -22.5490 C   0  0  0  0  0  0
  -28.4005  -22.6390  -21.6368 N   0  0  0  0  0  0
  -29.8585  -22.4845  -21.8057 C   0  0  1  0  0  0
  -30.2528  -21.0078  -22.0228 C   0  0  2  0  0  0
  -30.4250  -21.3421  -23.4299 N   0  0  0  0  0  0
  -30.5474  -20.3908  -24.4618 C   0  0  0  0  0  0
  -30.8770  -20.9649  -25.8776 C   0  0  0  0  0  0
  -31.9114  -20.5105  -26.4133 O   0  5  0  0  0  0
  -30.0414  -21.7338  -26.4125 O   0  0  0  0  0  0
  -30.3185  -19.0614  -24.2722 C   0  0  0  0  0  0
  -30.3335  -18.0288  -25.4070 C   0  0  0  0  0  0
  -31.6885  -17.5483  -25.7707 N   0  3  0  0  0  0
  -32.5604  -17.1478  -24.8088 C   0  0  0  0  0  0
  -33.8285  -16.6342  -25.1475 C   0  0  0  0  0  0
  -34.1875  -16.5336  -26.5049 C   0  0  0  0  0  0
  -33.2680  -16.9478  -27.4895 C   0  0  0  0  0  0
  -32.0139  -17.4536  -27.0873 C   0  0  0  0  0  0
  -29.9353  -18.4711  -22.9157 C   0  0  0  0  0  0
  -29.0641  -19.6424  -21.8565 S   0  0  0  0  0  0
  -30.4621  -22.7106  -23.2191 C   0  0  0  0  0  0
  -30.7956  -23.6536  -23.9046 O   0  0  0  0  0  0
  -27.6189  -23.1493  -23.7227 O   0  0  0  0  0  0
  -25.8600  -22.8584  -20.5267 C   0  0  0  0  0  0
  -26.3077  -21.9432  -19.5992 C   0  0  0  0  0  0
  -25.9134  -22.4282  -17.9729 S   0  0  0  0  0  0
  -25.0967  -23.8372  -18.6310 C   0  0  0  0  0  0
  -24.3739  -24.7070  -17.8367 N   0  0  0  0  0  0
  -25.1823  -23.9433  -19.9548 N   0  0  0  0  0  0
  -21.7532  -21.6728  -24.5873 H   0  0  0  0  0  0
  -22.9453  -20.6164  -23.8434 H   0  0  0  0  0  0
  -22.4002  -22.0670  -23.0083 H   0  0  0  0  0  0
  -23.0539  -22.0027  -26.6884 H   0  0  0  0  0  0
  -24.7682  -22.3483  -26.6558 H   0  0  0  0  0  0
  -24.1851  -20.8104  -26.0679 H   0  0  0  0  0  0
  -28.0857  -22.3857  -20.7111 H   0  0  0  0  0  0
  -30.4306  -22.9308  -20.9906 H   0  0  0  0  0  0
  -31.2081  -20.7517  -21.5569 H   0  0  0  0  0  0
  -29.7493  -17.1493  -25.1565 H   0  0  0  0  0  0
  -29.8600  -18.4505  -26.2941 H   0  0  0  0  0  0
  -32.2220  -17.1936  -23.7875 H   0  0  0  0  0  0
  -34.5044  -16.3072  -24.3696 H   0  0  0  0  0  0
  -35.1498  -16.1329  -26.7859 H   0  0  0  0  0  0
  -33.5177  -16.8712  -28.5378 H   0  0  0  0  0  0
  -31.2626  -17.7702  -27.7960 H   0  0  0  0  0  0
  -29.2836  -17.6105  -23.0481 H   0  0  0  0  0  0
  -30.8242  -18.1241  -22.3889 H   0  0  0  0  0  0
  -26.8240  -21.0053  -19.7624 H   0  0  0  0  0  0
  -23.5369  -25.0761  -18.2599 H   0  0  0  0  0  0
  -24.2624  -24.3990  -16.8803 H   0  0  0  0  0  0
  1  2  1  0  0  0
  1 38  1  0  0  0
  1 39  1  0  0  0
  1 40  1  0  0  0
  2  3  1  0  0  0
  2  4  1  0  0  0
  2  7  1  0  0  0
  3 41  1  0  0  0
  3 42  1  0  0  0
  3 43  1  0  0  0
  4  5  1  0  0  0
  4  6  2  0  0  0
  7  8  1  0  0  0
  8  9  2  3  0  0
  9 10  1  0  0  0
  9 32  1  0  0  0
 10 11  1  0  0  0
 10 31  2  0  0  0
 11 12  1  0  0  0
 11 44  1  0  0  0
 12 29  1  0  0  0
 12 13  1  0  0  0
 12 45  1  0  0  0
 13 28  1  0  0  0
 13 14  1  0  0  0
 13 46  1  0  0  0
 14 15  1  0  0  0
 14 29  1  0  0  0
 15 16  1  0  0  0
 15 19  2  0  0  0
 16 17  1  0  0  0
 16 18  2  0  0  0
 19 20  1  0  0  0
 19 27  1  0  0  0
 20 21  1  0  0  0
 20 47  1  0  0  0
 20 48  1  0  0  0
 21 26  1  0  0  0
 21 22  2  0  0  0
 22 23  1  0  0  0
 22 49  1  0  0  0
 23 24  2  0  0  0
 23 50  1  0  0  0
 24 25  1  0  0  0
 24 51  1  0  0  0
 25 26  2  0  0  0
 25 52  1  0  0  0
 26 53  1  0  0  0
 27 28  1  0  0  0
 27 54  1  0  0  0
 27 55  1  0  0  0
 29 30  2  0  0  0
 32 37  1  0  0  0
 32 33  2  0  0  0
 33 34  1  0  0  0
 33 56  1  0  0  0
 34 35  1  0  0  0
 35 36  1  0  0  0
 35 37  2  0  0  0
 36 57  1  0  0  0
 36 58  1  0  0  0
M  CHG  3   5  -1  17  -1  21   1
M  END
> <s_m_entry_id>
27510

> <s_m_entry_name>
data_maestro.30

> <s_m_Source_Path>
C:\Users\olshana1\Git\GramNeg-Accumulation\Gram Negative Permeation - OmpF

> <s_m_Source_File>
data_maestro.csv

> <i_m_Source_File_Index>
30

> <s_m_job_name>
glide-dock_Nicaido_neutral

> <s_i_glide_gridfile>
3POX-grid

> <i_i_glide_lignum>
39

> <i_i_glide_rotatable_bonds>
10

> <r_i_docking_score>
-4.79623635100124

> <r_i_glide_ligand_efficiency>
-0.12962800948652

> <r_i_glide_ligand_efficiency_sa>
-0.43194928527644

> <r_i_glide_ligand_efficiency_ln>
-1.04019122479904

> <r_i_glide_gscore>
-4.79623635100124

> <r_i_glide_lipo>
0

> <r_i_glide_hbond>
-0.751510959424302

> <r_i_glide_metal>
0

> <r_i_glide_rewards>
0.0321485275384977

> <r_i_glide_evdw>
-33.4234848022461

> <r_i_glide_ecoul>
-14.5004415512085

> <r_i_glide_erotb>
0.556495996469625

> <r_i_glide_esite>
-0.78712944279148

> <r_i_glide_emodel>
-71.9563218231508

> <r_i_glide_energy>
-47.9239263534546

> <r_i_glide_einternal>
20.9941444396973

> <i_i_glide_confnum>
204

> <i_i_glide_posenum>
204

> <r_i_glide_eff_state_penalty>
0

> <r_glide_res:A132_vdw>
-2.49965751776726

> <r_glide_res:A132_coul>
-34.0974936085303

> <r_glide_res:A132_hbond>
-0.135234670794248

> <r_glide_res:A132_dist>
2.16191332301438

> <r_glide_res:A132_Eint>
-36.7323857970918

> <r_glide_res:A117_vdw>
-3.36422965311112

> <r_glide_res:A117_coul>
17.5073747782189

> <r_glide_res:A117_hbond>
0

> <r_glide_res:A117_dist>
1.98282036729074

> <r_glide_res:A117_Eint>
14.1431451251078

> <r_glide_res:A113_vdw>
-3.01011614590443

> <r_glide_res:A113_coul>
6.24274197334506

> <r_glide_res:A113_hbond>
0

> <r_glide_res:A113_dist>
3.04555092372231

> <r_glide_res:A113_Eint>
3.23262582744064

> <r_glide_res:A82_vdw>
-2.78691444911114

> <r_glide_res:A82_coul>
-54.3167758703841

> <r_glide_res:A82_hbond>
-0.142056559062114

> <r_glide_res:A82_dist>
2.15653025950707

> <r_glide_res:A82_Eint>
-57.2457468785574

> <r_glide_res:A42_vdw>
-1.32242606867135

> <r_glide_res:A42_coul>
-63.1536663892813

> <r_glide_res:A42_hbond>
-0.0939341898593019

> <r_glide_res:A42_dist>
1.57229522301456

> <r_glide_res:A42_Eint>
-64.570026647812

> <r_glide_res:A16_vdw>
1.56460868568799

> <r_glide_res:A16_coul>
-44.2466716141439

> <r_glide_res:A16_hbond>
-0.20269728472673

> <r_glide_res:A16_dist>
1.81813253886918

> <r_glide_res:A16_Eint>
-42.8847602131826

> <s_m_source_file>
ligprep_Nicaido_neutral.maegz

> <i_m_source_file_index>
30

> <i_lp_mmshare_version>
58128

> <i_f3d_flags>
0

> <s_lp_Force_Field>
S-OPLS

> <r_lp_Energy>
82.572273

> <b_lp_Chiralities_Consistent>
1

> <s_lp_Variant>
Ceftazidime-2

> <s_epik_input>
W09IXUMoPU8pQyhbQ0gzXSkoW0NIM10pTy9OPUMoYzFbY0hdc2MobjEpW05IMl0pL0MoPU8pW05IXVtDQEBIXTJDKD1PKU4oW0NAQEhdMjMpQyhDKD1PKVtPSF0pPUMoW0NIMl1TMylbQ0gyXVtuK100W2NIXVtjSF1bY0hdW2NIXVtjSF00

> <s_epik_cmdline>
J2VwaWtfcHl0aG9uJywgJy1waHQnLCAnMC4wJywgJy1waCcsICc3LjQnLCAnLW50JywgJy1tYScsICc1MDAnLCAnLWltYWUnLCAnPGluZmlsZS5tYWU+JywgJy1vbWFlJywgJzxvdXRmaWxlLm1hZT4n

> <r_lp_tautomer_probability>
1

> <r_epik_Ionization_Penalty>
  0.0005

> <r_epik_Ionization_Penalty_Charging>
  0.0001

> <r_epik_Ionization_Penalty_Neutral>
  0.0005

> <r_epik_State_Penalty>
  0.0000

> <r_epik_Charging_Adjusted_Penalty>
5.84857251211915e-05

> <i_epik_Tot_Q>
-1

> <i_epik_Tot_abs_Q>
3

> <s_epik_Chemistry_Notes>
This compound has an imine and may undergo hydrolysis. This compound contains an acetal/aminal-like group ( X-CH(R)-Y where X, Y are N, S, or O) that may be acid/base labile, releasing an aldehyde.

> <s_m_subgroup_title>
glide-dock_Nicaido_neutral_pv1

> <s_m_subgroupid>
glide-dock_Nicaido_neutral_pv1

> <b_m_subgroup_collapsed>
0

$$$$
LY097964
                    3D
 Schrodinger Suite 2022-2.
 40 42  0  0  1  0            999 V2000
  -23.7373  -24.7404  -17.6140 C   0  0  0  0  0  0
  -24.1615  -23.5585  -18.2616 O   0  0  0  0  0  0
  -25.4473  -23.7845  -18.7741 N   0  0  0  0  0  0
  -25.9847  -22.7399  -19.2761 C   0  0  0  0  0  0
  -25.2994  -21.4152  -19.4029 C   0  0  0  0  0  0
  -24.0820  -21.2990  -20.0383 C   0  0  0  0  0  0
  -23.4811  -19.6625  -20.0315 S   0  0  0  0  0  0
  -24.9324  -19.1828  -19.1734 C   0  0  0  0  0  0
  -25.1689  -17.8733  -18.8115 N   0  0  0  0  0  0
  -25.7765  -20.1857  -18.9341 N   0  0  0  0  0  0
  -27.3814  -22.8498  -19.8725 C   0  0  0  0  0  0
  -27.9347  -21.6960  -20.2871 N   0  0  0  0  0  0
  -29.1731  -21.5825  -21.0619 C   0  0  1  0  0  0
  -29.2219  -20.2645  -21.8650 C   0  0  1  0  0  0
  -29.3824  -21.0702  -23.0607 N   0  0  0  0  0  0
  -29.1017  -22.2814  -22.4487 C   0  0  0  0  0  0
  -28.8804  -23.3967  -22.8799 O   0  0  0  0  0  0
  -29.5202  -20.4979  -24.3399 C   0  0  0  0  0  0
  -29.1104  -21.4330  -25.5228 C   0  0  0  0  0  0
  -29.9687  -21.6338  -26.4133 O   0  5  0  0  0  0
  -27.9712  -21.9494  -25.4566 O   0  0  0  0  0  0
  -29.9123  -19.2053  -24.5173 C   0  0  0  0  0  0
  -30.3215  -18.2797  -23.3724 C   0  0  0  0  0  0
  -30.6295  -19.1192  -21.7998 S   0  0  0  0  0  0
  -29.9671  -18.4956  -25.8658 C   0  0  0  0  0  0
  -27.9244  -23.9496  -20.0133 O   0  0  0  0  0  0
  -22.7537  -24.5787  -17.1735 H   0  0  0  0  0  0
  -24.4239  -25.0175  -16.8134 H   0  0  0  0  0  0
  -23.6600  -25.5674  -18.3203 H   0  0  0  0  0  0
  -23.4928  -22.0819  -20.4899 H   0  0  0  0  0  0
  -25.9977  -17.7022  -18.2437 H   0  0  0  0  0  0
  -24.4040  -17.2273  -18.6854 H   0  0  0  0  0  0
  -27.4562  -20.8311  -20.0638 H   0  0  0  0  0  0
  -30.0818  -21.7648  -20.4855 H   0  0  0  0  0  0
  -28.2738  -19.7212  -21.8864 H   0  0  0  0  0  0
  -29.5316  -17.5491  -23.2202 H   0  0  0  0  0  0
  -31.2206  -17.7246  -23.6416 H   0  0  0  0  0  0
  -29.3955  -17.5677  -25.8162 H   0  0  0  0  0  0
  -29.5583  -19.0745  -26.6911 H   0  0  0  0  0  0
  -30.9976  -18.2388  -26.1103 H   0  0  0  0  0  0
  1  2  1  0  0  0
  1 27  1  0  0  0
  1 28  1  0  0  0
  1 29  1  0  0  0
  2  3  1  0  0  0
  3  4  2  3  0  0
  4  5  1  0  0  0
  4 11  1  0  0  0
  5 10  1  0  0  0
  5  6  2  0  0  0
  6  7  1  0  0  0
  6 30  1  0  0  0
  7  8  1  0  0  0
  8  9  1  0  0  0
  8 10  2  0  0  0
  9 31  1  0  0  0
  9 32  1  0  0  0
 11 12  1  0  0  0
 11 26  2  0  0  0
 12 13  1  0  0  0
 12 33  1  0  0  0
 13 16  1  0  0  0
 13 14  1  0  0  0
 13 34  1  0  0  0
 14 24  1  0  0  0
 14 15  1  0  0  0
 14 35  1  0  0  0
 15 16  1  0  0  0
 15 18  1  0  0  0
 16 17  2  0  0  0
 18 19  1  0  0  0
 18 22  2  0  0  0
 19 20  1  0  0  0
 19 21  2  0  0  0
 22 23  1  0  0  0
 22 25  1  0  0  0
 23 24  1  0  0  0
 23 36  1  0  0  0
 23 37  1  0  0  0
 25 38  1  0  0  0
 25 39  1  0  0  0
 25 40  1  0  0  0
M  CHG  1  20  -1
M  END
> <s_m_entry_id>
27511

> <s_m_entry_name>
data_maestro.7

> <s_m_Source_Path>
C:\Users\olshana1\Git\GramNeg-Accumulation\Gram Negative Permeation - OmpF

> <s_m_Source_File>
data_maestro.csv

> <i_m_Source_File_Index>
7

> <s_m_job_name>
glide-dock_Nicaido_neutral

> <s_i_glide_gridfile>
3POX-grid

> <i_i_glide_lignum>
9

> <i_i_glide_rotatable_bonds>
6

> <r_i_docking_score>
-4.79597563629563

> <r_i_glide_ligand_efficiency>
-0.184460601395986

> <r_i_glide_ligand_efficiency_sa>
-0.54646380581819

> <r_i_glide_ligand_efficiency_ln>
-1.12631914130441

> <r_i_glide_gscore>
-4.79597563629563

> <r_i_glide_lipo>
0

> <r_i_glide_hbond>
-1.01651903834572

> <r_i_glide_metal>
0

> <r_i_glide_rewards>
-0.705236986421422

> <r_i_glide_evdw>
-27.3745441436768

> <r_i_glide_ecoul>
-11.4914684295654

> <r_i_glide_erotb>
0.622478626066327

> <r_i_glide_esite>
-0.604250765976162

> <r_i_glide_emodel>
-61.5405210066415

> <r_i_glide_energy>
-38.8660125732422

> <r_i_glide_einternal>
2.82832908630371

> <i_i_glide_confnum>
46

> <i_i_glide_posenum>
332

> <r_i_glide_eff_state_penalty>
0

> <r_glide_res:A132_vdw>
-1.34066132075274

> <r_glide_res:A132_coul>
-32.395911380257

> <r_glide_res:A132_hbond>
-0.16

> <r_glide_res:A132_dist>
1.84022132897433

> <r_glide_res:A132_Eint>
-33.8965727010098

> <r_glide_res:A117_vdw>
-3.96897204709882

> <r_glide_res:A117_coul>
24.0482163232931

> <r_glide_res:A117_hbond>
0

> <r_glide_res:A117_dist>
2.35472586478618

> <r_glide_res:A117_Eint>
20.0792442761943

> <r_glide_res:A113_vdw>
-3.39697453471872

> <r_glide_res:A113_coul>
20.5552874606292

> <r_glide_res:A113_hbond>
0

> <r_glide_res:A113_dist>
2.62328224816822

> <r_glide_res:A113_Eint>
17.1583129259105

> <r_glide_res:A82_vdw>
-1.65681307829448

> <r_glide_res:A82_coul>
-37.9112981135101

> <r_glide_res:A82_hbond>
-0.0208607735213445

> <r_glide_res:A82_dist>
2.44358927855514

> <r_glide_res:A82_Eint>
-39.5889719653259

> <r_glide_res:A42_vdw>
1.787524494665

> <r_glide_res:A42_coul>
-53.7600830698028

> <r_glide_res:A42_hbond>
-0.315658264824375

> <r_glide_res:A42_dist>
1.6939113978043

> <r_glide_res:A42_Eint>
-52.2882168399622

> <r_glide_res:A16_vdw>
0.225340374487875

> <r_glide_res:A16_coul>
-48.2000786813998

> <r_glide_res:A16_hbond>
-0.2

> <r_glide_res:A16_dist>
1.80003244361289

> <r_glide_res:A16_Eint>
-48.1747383069119

> <s_m_source_file>
ligprep_Nicaido_neutral.maegz

> <i_m_source_file_index>
7

> <i_lp_mmshare_version>
58128

> <i_f3d_flags>
0

> <s_lp_Force_Field>
S-OPLS

> <r_lp_Energy>
53.750759

> <b_lp_Chiralities_Consistent>
1

> <s_lp_Variant>
LY097964-1

> <s_epik_input>
W05IMl1jKG4xKXNbY0hdYzEvQyg9TlxPW0NIM10pQyg9TylbTkhdW0NAQEhdMkMoPU8pTihbQ0BIXTIzKUMoQyg9TylbT0hdKT1DKFtDSDJdUzMpW0NIM10=

> <s_epik_cmdline>
J2VwaWtfcHl0aG9uJywgJy1waHQnLCAnMC4wJywgJy1waCcsICc3LjQnLCAnLW50JywgJy1tYScsICc1MDAnLCAnLWltYWUnLCAnPGluZmlsZS5tYWU+JywgJy1vbWFlJywgJzxvdXRmaWxlLm1hZT4n

> <r_lp_tautomer_probability>
1

> <r_epik_Ionization_Penalty>
  0.0005

> <r_epik_Ionization_Penalty_Charging>
  0.0000

> <r_epik_Ionization_Penalty_Neutral>
  0.0005

> <r_epik_State_Penalty>
  0.0000

> <r_epik_Charging_Adjusted_Penalty>
1.64985111359435e-05

> <i_epik_Tot_Q>
-1

> <i_epik_Tot_abs_Q>
1

> <s_epik_Chemistry_Notes>
This compound has an imine and may undergo hydrolysis. This compound contains an acetal/aminal-like group ( X-CH(R)-Y where X, Y are N, S, or O) that may be acid/base labile, releasing an aldehyde.

> <s_m_subgroup_title>
glide-dock_Nicaido_neutral_pv1

> <s_m_subgroupid>
glide-dock_Nicaido_neutral_pv1

> <b_m_subgroup_collapsed>
0

$$$$
LY097964
                    3D
 Schrodinger Suite 2022-2.
 40 42  0  0  1  0            999 V2000
  -26.1595  -25.9493  -18.1824 C   0  0  0  0  0  0
  -27.0491  -24.8843  -18.4140 O   0  0  0  0  0  0
  -26.3236  -23.6846  -18.3797 N   0  0  0  0  0  0
  -26.8648  -22.7247  -19.0283 C   0  0  0  0  0  0
  -26.2170  -21.3805  -18.9849 C   0  0  0  0  0  0
  -25.5464  -20.9489  -17.8608 C   0  0  0  0  0  0
  -24.7689  -19.4058  -18.1000 S   0  0  0  0  0  0
  -25.4061  -19.3921  -19.7363 C   0  0  0  0  0  0
  -25.1665  -18.3495  -20.6077 N   0  0  0  0  0  0
  -26.1109  -20.4755  -20.0511 N   0  0  0  0  0  0
  -28.1039  -22.8640  -19.9200 C   0  0  0  0  0  0
  -28.7690  -21.7225  -20.1667 N   0  0  0  0  0  0
  -29.8883  -21.5363  -21.0976 C   0  0  1  0  0  0
  -29.7186  -20.2079  -21.8662 C   0  0  1  0  0  0
  -29.7470  -20.9796  -23.0906 N   0  0  0  0  0  0
  -29.7321  -22.2213  -22.4879 C   0  0  0  0  0  0
  -29.6224  -23.3457  -22.9373 O   0  0  0  0  0  0
  -29.5876  -20.3904  -24.3520 C   0  0  0  0  0  0
  -29.0650  -21.3700  -25.4480 C   0  0  0  0  0  0
  -27.9758  -21.9498  -25.2226 O   0  5  0  0  0  0
  -29.8337  -21.5736  -26.4135 O   0  0  0  0  0  0
  -29.8324  -19.0687  -24.5676 C   0  0  0  0  0  0
  -30.3678  -18.1225  -23.4890 C   0  0  0  0  0  0
  -31.0219  -18.9524  -22.0129 S   0  0  0  0  0  0
  -29.5819  -18.3569  -25.8914 C   0  0  0  0  0  0
  -28.4217  -23.9492  -20.4124 O   0  0  0  0  0  0
  -26.7230  -26.8821  -18.2429 H   0  0  0  0  0  0
  -25.3665  -25.9493  -18.9267 H   0  0  0  0  0  0
  -25.6750  -25.9005  -17.2133 H   0  0  0  0  0  0
  -25.4588  -21.4484  -16.9063 H   0  0  0  0  0  0
  -25.7676  -18.2393  -21.4159 H   0  0  0  0  0  0
  -24.7870  -17.4920  -20.2381 H   0  0  0  0  0  0
  -28.4781  -20.8865  -19.6765 H   0  0  0  0  0  0
  -30.8717  -21.6354  -20.6379 H   0  0  0  0  0  0
  -28.7406  -19.7398  -21.7295 H   0  0  0  0  0  0
  -29.5689  -17.4504  -23.1817 H   0  0  0  0  0  0
  -31.1617  -17.4999  -23.9030 H   0  0  0  0  0  0
  -28.8620  -17.5512  -25.7469 H   0  0  0  0  0  0
  -29.1867  -19.0022  -26.6733 H   0  0  0  0  0  0
  -30.5072  -17.9141  -26.2598 H   0  0  0  0  0  0
  1  2  1  0  0  0
  1 27  1  0  0  0
  1 28  1  0  0  0
  1 29  1  0  0  0
  2  3  1  0  0  0
  3  4  2  3  0  0
  4  5  1  0  0  0
  4 11  1  0  0  0
  5 10  1  0  0  0
  5  6  2  0  0  0
  6  7  1  0  0  0
  6 30  1  0  0  0
  7  8  1  0  0  0
  8  9  1  0  0  0
  8 10  2  0  0  0
  9 31  1  0  0  0
  9 32  1  0  0  0
 11 12  1  0  0  0
 11 26  2  0  0  0
 12 13  1  0  0  0
 12 33  1  0  0  0
 13 16  1  0  0  0
 13 14  1  0  0  0
 13 34  1  0  0  0
 14 24  1  0  0  0
 14 15  1  0  0  0
 14 35  1  0  0  0
 15 16  1  0  0  0
 15 18  1  0  0  0
 16 17  2  0  0  0
 18 19  1  0  0  0
 18 22  2  0  0  0
 19 20  1  0  0  0
 19 21  2  0  0  0
 22 23  1  0  0  0
 22 25  1  0  0  0
 23 24  1  0  0  0
 23 36  1  0  0  0
 23 37  1  0  0  0
 25 38  1  0  0  0
 25 39  1  0  0  0
 25 40  1  0  0  0
M  CHG  1  20  -1
M  END
> <s_m_entry_id>
27512

> <s_m_entry_name>
data_maestro.7

> <s_m_Source_Path>
C:\Users\olshana1\Git\GramNeg-Accumulation\Gram Negative Permeation - OmpF

> <s_m_Source_File>
data_maestro.csv

> <i_m_Source_File_Index>
7

> <s_m_job_name>
glide-dock_Nicaido_neutral

> <s_i_glide_gridfile>
3POX-grid

> <i_i_glide_lignum>
10

> <i_i_glide_rotatable_bonds>
6

> <r_i_docking_score>
-4.79476512322989

> <r_i_glide_ligand_efficiency>
-0.18441404320115

> <r_i_glide_ligand_efficiency_sa>
-0.546325877349186

> <r_i_glide_ligand_efficiency_ln>
-1.12603485628294

> <r_i_glide_gscore>
-4.79476512322989

> <r_i_glide_lipo>
0

> <r_i_glide_hbond>
-0.747472577670133

> <r_i_glide_metal>
0

> <r_i_glide_rewards>
-0.625246915193666

> <r_i_glide_evdw>
-30.9564895629883

> <r_i_glide_ecoul>
-12.0782413482666

> <r_i_glide_erotb>
0.622478626066327

> <r_i_glide_esite>
-0.684963576043017

> <r_i_glide_emodel>
-64.8262859597203

> <r_i_glide_energy>
-43.0347309112549

> <r_i_glide_einternal>
1.99902033805847

> <i_i_glide_confnum>
17

> <i_i_glide_posenum>
134

> <r_i_glide_eff_state_penalty>
0

> <r_glide_res:A132_vdw>
-1.20009704816295

> <r_glide_res:A132_coul>
-35.016298655679

> <r_glide_res:A132_hbond>
-0.16

> <r_glide_res:A132_dist>
1.76140671728409

> <r_glide_res:A132_Eint>
-36.3763957038419

> <r_glide_res:A117_vdw>
-4.36816291930248

> <r_glide_res:A117_coul>
23.3882226173585

> <r_glide_res:A117_hbond>
-0.0700233654487684

> <r_glide_res:A117_dist>
2.12164085433481

> <r_glide_res:A117_Eint>
18.9500363326073

> <r_glide_res:A113_vdw>
-3.85940929771974

> <r_glide_res:A113_coul>
16.3325715663931

> <r_glide_res:A113_hbond>
0

> <r_glide_res:A113_dist>
2.54533997755171

> <r_glide_res:A113_Eint>
12.4731622686734

> <r_glide_res:A82_vdw>
-1.60711808231233

> <r_glide_res:A82_coul>
-40.1017123880827

> <r_glide_res:A82_hbond>
-0.0376141887654317

> <r_glide_res:A82_dist>
2.40596452808642

> <r_glide_res:A82_Eint>
-41.7464446591605

> <r_glide_res:A42_vdw>
-0.113619969228035

> <r_glide_res:A42_coul>
-53.7395590791588

> <r_glide_res:A42_hbond>
-0.279835023455932

> <r_glide_res:A42_dist>
1.80532483037936

> <r_glide_res:A42_Eint>
-54.1330140718428

> <r_glide_res:A16_vdw>
0.0296807882804522

> <r_glide_res:A16_coul>
-48.4955768609734

> <r_glide_res:A16_hbond>
-0.2

> <r_glide_res:A16_dist>
1.81430847830553

> <r_glide_res:A16_Eint>
-48.6658960726929

> <s_m_source_file>
ligprep_Nicaido_neutral.maegz

> <i_m_source_file_index>
7

> <i_lp_mmshare_version>
58128

> <i_f3d_flags>
0

> <s_lp_Force_Field>
S-OPLS

> <r_lp_Energy>
53.916069

> <b_lp_Chiralities_Consistent>
1

> <s_lp_Variant>
LY097964-2

> <s_epik_input>
W05IMl1jKG4xKXNbY0hdYzEvQyg9TlxPW0NIM10pQyg9TylbTkhdW0NAQEhdMkMoPU8pTihbQ0BIXTIzKUMoQyg9TylbT0hdKT1DKFtDSDJdUzMpW0NIM10=

> <s_epik_cmdline>
J2VwaWtfcHl0aG9uJywgJy1waHQnLCAnMC4wJywgJy1waCcsICc3LjQnLCAnLW50JywgJy1tYScsICc1MDAnLCAnLWltYWUnLCAnPGluZmlsZS5tYWU+JywgJy1vbWFlJywgJzxvdXRmaWxlLm1hZT4n

> <r_lp_tautomer_probability>
1

> <r_epik_Ionization_Penalty>
  0.0005

> <r_epik_Ionization_Penalty_Charging>
  0.0000

> <r_epik_Ionization_Penalty_Neutral>
  0.0005

> <r_epik_State_Penalty>
  0.0000

> <r_epik_Charging_Adjusted_Penalty>
1.64985111359435e-05

> <i_epik_Tot_Q>
-1

> <i_epik_Tot_abs_Q>
1

> <s_epik_Chemistry_Notes>
This compound has an imine and may undergo hydrolysis. This compound contains an acetal/aminal-like group ( X-CH(R)-Y where X, Y are N, S, or O) that may be acid/base labile, releasing an aldehyde.

> <s_m_subgroup_title>
glide-dock_Nicaido_neutral_pv1

> <s_m_subgroupid>
glide-dock_Nicaido_neutral_pv1

> <b_m_subgroup_collapsed>
0

$$$$
Aztreonam
                    3D
 Schrodinger Suite 2022-2.
 43 44  0  0  1  0            999 V2000
  -30.8578  -21.8749  -22.2497 C   0  0  0  0  0  0
  -30.3334  -21.0171  -23.4085 C   0  0  1  0  0  0
  -28.8128  -20.7802  -23.5959 C   0  0  2  0  0  0
  -29.0139  -21.3966  -24.9991 C   0  0  0  0  0  0
  -30.3073  -21.7219  -24.6897 N   0  0  0  0  0  0
  -31.6434  -22.1124  -25.6086 S   0  0  0  0  0  0
  -32.7051  -22.4544  -24.6538 O   0  0  0  0  0  0
  -31.1690  -23.2489  -26.4138 O   0  5  0  0  0  0
  -31.8988  -20.9077  -26.4134 O   0  0  0  0  0  0
  -28.3689  -21.5497  -26.0140 O   0  0  0  0  0  0
  -27.9815  -21.5752  -22.6772 N   0  0  0  0  0  0
  -26.7960  -22.1603  -22.9620 C   0  0  0  0  0  0
  -26.1403  -22.9130  -21.8177 C   0  0  0  0  0  0
  -26.8559  -22.8817  -20.5164 C   0  0  0  0  0  0
  -26.7678  -21.7980  -19.6749 C   0  0  0  0  0  0
  -27.7564  -21.9950  -18.2566 S   0  0  0  0  0  0
  -28.2551  -23.5620  -18.8695 C   0  0  0  0  0  0
  -29.1698  -24.3482  -18.1979 N   0  0  0  0  0  0
  -27.6961  -23.8948  -20.0343 N   0  0  0  0  0  0
  -25.0565  -23.5490  -22.0264 N   0  0  0  0  0  0
  -24.5691  -24.2170  -20.8859 O   0  0  0  0  0  0
  -23.1643  -24.4982  -21.0176 C   0  0  0  0  0  0
  -22.8757  -25.5428  -22.1350 C   0  0  0  0  0  0
  -22.3691  -25.1494  -23.2131 O   0  5  0  0  0  0
  -23.1694  -26.7419  -21.9149 O   0  0  0  0  0  0
  -22.3523  -23.1968  -21.2414 C   0  0  0  0  0  0
  -22.7826  -25.0984  -19.6517 C   0  0  0  0  0  0
  -26.2665  -22.1373  -24.0751 O   0  0  0  0  0  0
  -30.6408  -21.4109  -21.2873 H   0  0  0  0  0  0
  -31.9396  -21.9979  -22.2925 H   0  0  0  0  0  0
  -30.4131  -22.8701  -22.2431 H   0  0  0  0  0  0
  -30.8829  -20.0795  -23.5210 H   0  0  0  0  0  0
  -28.5570  -19.7196  -23.5969 H   0  0  0  0  0  0
  -28.3288  -21.6369  -21.7289 H   0  0  0  0  0  0
  -26.1967  -20.8892  -19.8001 H   0  0  0  0  0  0
  -29.6690  -25.0330  -18.7444 H   0  0  0  0  0  0
  -29.7881  -23.7979  -17.6131 H   0  0  0  0  0  0
  -21.2771  -23.3875  -21.2116 H   0  0  0  0  0  0
  -22.5660  -22.7272  -22.2025 H   0  0  0  0  0  0
  -22.5797  -22.4629  -20.4689 H   0  0  0  0  0  0
  -21.7448  -25.4346  -19.6321 H   0  0  0  0  0  0
  -22.9074  -24.3644  -18.8542 H   0  0  0  0  0  0
  -23.4124  -25.9516  -19.4006 H   0  0  0  0  0  0
  1  2  1  0  0  0
  1 29  1  0  0  0
  1 30  1  0  0  0
  1 31  1  0  0  0
  2  5  1  0  0  0
  2  3  1  0  0  0
  2 32  1  0  0  0
  3  4  1  0  0  0
  3 11  1  0  0  0
  3 33  1  0  0  0
  4  5  1  0  0  0
  4 10  2  0  0  0
  5  6  1  0  0  0
  6  7  2  0  0  0
  6  8  1  0  0  0
  6  9  2  0  0  0
 11 12  1  0  0  0
 11 34  1  0  0  0
 12 13  1  0  0  0
 12 28  2  0  0  0
 13 14  1  0  0  0
 13 20  2  3  0  0
 14 19  1  0  0  0
 14 15  2  0  0  0
 15 16  1  0  0  0
 15 35  1  0  0  0
 16 17  1  0  0  0
 17 18  1  0  0  0
 17 19  2  0  0  0
 18 36  1  0  0  0
 18 37  1  0  0  0
 20 21  1  0  0  0
 21 22  1  0  0  0
 22 23  1  0  0  0
 22 26  1  0  0  0
 22 27  1  0  0  0
 23 24  1  0  0  0
 23 25  2  0  0  0
 26 38  1  0  0  0
 26 39  1  0  0  0
 26 40  1  0  0  0
 27 41  1  0  0  0
 27 42  1  0  0  0
 27 43  1  0  0  0
M  CHG  2   8  -1  24  -1
M  END
> <s_m_entry_id>
27513

> <s_m_entry_name>
data_maestro.21

> <s_m_Source_Path>
C:\Users\olshana1\Git\GramNeg-Accumulation\Gram Negative Permeation - OmpF

> <s_m_Source_File>
data_maestro.csv

> <i_m_Source_File_Index>
21

> <s_m_job_name>
glide-dock_Nicaido_neutral

> <s_i_glide_gridfile>
3POX-grid

> <i_i_glide_lignum>
26

> <i_i_glide_rotatable_bonds>
8

> <r_i_docking_score>
-4.79165686997866

> <r_i_glide_ligand_efficiency>
-0.171130602499238

> <r_i_glide_ligand_efficiency_sa>
-0.519653299722426

> <r_i_glide_ligand_efficiency_ln>
-1.1060550947501

> <r_i_glide_gscore>
-4.79165686997866

> <r_i_glide_lipo>
0

> <r_i_glide_hbond>
-0.796294679051401

> <r_i_glide_metal>
0

> <r_i_glide_rewards>
-0.408360517083356

> <r_i_glide_evdw>
-21.3507881164551

> <r_i_glide_ecoul>
-15.0263481140137

> <r_i_glide_erotb>
0.635830109179744

> <r_i_glide_esite>
-0.901340160098839

> <r_i_glide_emodel>
-61.8799686201848

> <r_i_glide_energy>
-36.3771362304688

> <r_i_glide_einternal>
7.52724885940552

> <i_i_glide_confnum>
82

> <i_i_glide_posenum>
301

> <r_i_glide_eff_state_penalty>
0

> <r_glide_res:A132_vdw>
-1.33746857423982

> <r_glide_res:A132_coul>
-65.0645293393029

> <r_glide_res:A132_hbond>
-0.29975110674235

> <r_glide_res:A132_dist>
1.93728622928208

> <r_glide_res:A132_Eint>
-66.7017490202851

> <r_glide_res:A117_vdw>
-1.20099977118574

> <r_glide_res:A117_coul>
36.8503877771039

> <r_glide_res:A117_hbond>
0

> <r_glide_res:A117_dist>
3.40010082745892

> <r_glide_res:A117_Eint>
35.6493880059181

> <r_glide_res:A113_vdw>
-2.81742805112753

> <r_glide_res:A113_coul>
26.5401817397605

> <r_glide_res:A113_hbond>
-0.0306585188438445

> <r_glide_res:A113_dist>
2.37630880144342

> <r_glide_res:A113_Eint>
23.6920951697891

> <r_glide_res:A82_vdw>
-2.78162156543549

> <r_glide_res:A82_coul>
-58.3951664633207

> <r_glide_res:A82_hbond>
0

> <r_glide_res:A82_dist>
3.15593522846474

> <r_glide_res:A82_Eint>
-61.1767880287562

> <r_glide_res:A42_vdw>
-1.32619285788711

> <r_glide_res:A42_coul>
-69.0644439559205

> <r_glide_res:A42_hbond>
-0.265885053465207

> <r_glide_res:A42_dist>
2.11280327836146

> <r_glide_res:A42_Eint>
-70.6565218672728

> <r_glide_res:A16_vdw>
-0.869747905179892

> <r_glide_res:A16_coul>
-65.2145376479444

> <r_glide_res:A16_hbond>
0

> <r_glide_res:A16_dist>
2.35680025140592

> <r_glide_res:A16_Eint>
-66.0842855531243

> <s_m_source_file>
ligprep_Nicaido_neutral.maegz

> <i_m_source_file_index>
21

> <i_lp_mmshare_version>
58128

> <i_f3d_flags>
0

> <s_lp_Force_Field>
S-OPLS

> <r_lp_Energy>
55.612973

> <b_lp_Chiralities_Consistent>
1

> <s_lp_Variant>
Aztreonam-1

> <s_epik_input>
Tz1TKD1PKShbT0hdKU4xQyg9TylbQ0BASF0oW0NAQEhdMVtDSDNdKVtOSF1DKD1PKS9DKGMyW2NIXXNjKG4yKVtOSDJdKT1OL09DKFtDSDNdKShbQ0gzXSlDKD1PKVtPSF0=

> <s_epik_cmdline>
J2VwaWtfcHl0aG9uJywgJy1waHQnLCAnMC4wJywgJy1waCcsICc3LjQnLCAnLW50JywgJy1tYScsICc1MDAnLCAnLWltYWUnLCAnPGluZmlsZS5tYWU+JywgJy1vbWFlJywgJzxvdXRmaWxlLm1hZT4n

> <r_lp_tautomer_probability>
1

> <r_epik_Ionization_Penalty>
  0.0004

> <r_epik_Ionization_Penalty_Charging>
  0.0000

> <r_epik_Ionization_Penalty_Neutral>
  0.0004

> <r_epik_State_Penalty>
  0.0000

> <r_epik_Charging_Adjusted_Penalty>
4.45674509427693e-05

> <i_epik_Tot_Q>
-2

> <i_epik_Tot_abs_Q>
2

> <s_epik_Chemistry_Notes>
This compound has an imine and may undergo hydrolysis.

> <s_m_subgroup_title>
glide-dock_Nicaido_neutral_pv1

> <s_m_subgroupid>
glide-dock_Nicaido_neutral_pv1

> <b_m_subgroup_collapsed>
0

$$$$
Ofloxacin
                    3D
 Schrodinger Suite 2022-2.
 46 49  0  0  1  0            999 V2000
  -24.4549  -19.7011  -26.0449 C   0  0  0  0  0  0
  -25.3794  -20.0016  -24.8531 C   0  0  1  0  0  0
  -26.8447  -19.8331  -25.2643 C   0  0  0  0  0  0
  -27.6782  -19.9392  -24.1233 O   0  0  0  0  0  0
  -27.3274  -20.9115  -23.2113 C   0  0  0  0  0  0
  -26.1195  -21.6464  -23.2462 C   0  0  0  0  0  0
  -25.1827  -21.3437  -24.2809 N   0  0  0  0  0  0
  -24.0522  -22.1299  -24.4810 C   0  0  0  0  0  0
  -23.6550  -23.1519  -23.6961 C   0  0  0  0  0  0
  -24.4821  -23.4583  -22.5023 C   0  0  0  0  0  0
  -25.7303  -22.6751  -22.3592 C   0  0  0  0  0  0
  -26.6376  -22.9393  -21.3150 C   0  0  0  0  0  0
  -27.8487  -22.2436  -21.2009 C   0  0  0  0  0  0
  -28.6629  -22.5580  -20.1670 F   0  0  0  0  0  0
  -28.1964  -21.2463  -22.1461 C   0  0  0  0  0  0
  -29.3927  -20.5304  -22.0480 N   0  0  0  0  0  0
  -30.6205  -21.2709  -21.7830 C   0  0  0  0  0  0
  -31.8298  -20.3633  -22.0212 C   0  0  0  0  0  0
  -31.6886  -19.1329  -21.2134 N   0  3  0  0  0  0
  -30.4407  -18.3876  -21.4938 C   0  0  0  0  0  0
  -29.2228  -19.2912  -21.2993 C   0  0  0  0  0  0
  -32.8729  -18.2661  -21.2651 C   0  0  0  0  0  0
  -24.2168  -24.3494  -21.6928 O   0  0  0  0  0  0
  -22.3675  -23.9496  -24.0619 C   0  0  0  0  0  0
  -21.9372  -23.8324  -25.2285 O   0  5  0  0  0  0
  -21.9137  -24.7495  -23.2130 O   0  0  0  0  0  0
  -24.7071  -18.7498  -26.5078 H   0  0  0  0  0  0
  -23.4120  -19.6341  -25.7343 H   0  0  0  0  0  0
  -24.5370  -20.4681  -26.8133 H   0  0  0  0  0  0
  -25.1568  -19.2671  -24.0766 H   0  0  0  0  0  0
  -27.0063  -18.8505  -25.7097 H   0  0  0  0  0  0
  -27.1331  -20.5772  -26.0084 H   0  0  0  0  0  0
  -23.4815  -21.8821  -25.3627 H   0  0  0  0  0  0
  -26.4082  -23.6849  -20.5692 H   0  0  0  0  0  0
  -30.6751  -22.1550  -22.4188 H   0  0  0  0  0  0
  -30.6444  -21.6086  -20.7467 H   0  0  0  0  0  0
  -32.7431  -20.8901  -21.7415 H   0  0  0  0  0  0
  -31.9127  -20.1035  -23.0776 H   0  0  0  0  0  0
  -30.3690  -17.5442  -20.8134 H   0  0  0  0  0  0
  -30.4602  -17.9886  -22.5093 H   0  0  0  0  0  0
  -29.0979  -19.5254  -20.2405 H   0  0  0  0  0  0
  -28.3217  -18.7626  -21.6149 H   0  0  0  0  0  0
  -32.9407  -17.7293  -22.2123 H   0  0  0  0  0  0
  -33.7950  -18.8283  -21.1217 H   0  0  0  0  0  0
  -32.7689  -17.5495  -20.4571 H   0  0  0  0  0  0
  -31.5728  -19.4501  -20.2472 H   0  0  0  0  0  0
  1  2  1  0  0  0
  1 27  1  0  0  0
  1 28  1  0  0  0
  1 29  1  0  0  0
  2  7  1  0  0  0
  2  3  1  0  0  0
  2 30  1  0  0  0
  3  4  1  0  0  0
  3 31  1  0  0  0
  3 32  1  0  0  0
  4  5  1  0  0  0
  5 15  1  0  0  0
  5  6  2  0  0  0
  6 11  1  0  0  0
  6  7  1  0  0  0
  7  8  1  0  0  0
  8  9  2  0  0  0
  8 33  1  0  0  0
  9 10  1  0  0  0
  9 24  1  0  0  0
 10 11  1  0  0  0
 10 23  2  0  0  0
 11 12  2  0  0  0
 12 13  1  0  0  0
 12 34  1  0  0  0
 13 14  1  0  0  0
 13 15  2  0  0  0
 15 16  1  0  0  0
 16 21  1  0  0  0
 16 17  1  0  0  0
 17 18  1  0  0  0
 17 35  1  0  0  0
 17 36  1  0  0  0
 18 19  1  0  0  0
 18 37  1  0  0  0
 18 38  1  0  0  0
 19 20  1  0  0  0
 19 22  1  0  0  0
 19 46  1  0  0  0
 20 21  1  0  0  0
 20 39  1  0  0  0
 20 40  1  0  0  0
 21 41  1  0  0  0
 21 42  1  0  0  0
 22 43  1  0  0  0
 22 44  1  0  0  0
 22 45  1  0  0  0
 24 25  1  0  0  0
 24 26  2  0  0  0
M  CHG  2  19   1  25  -1
M  END
> <s_m_entry_id>
27514

> <s_m_entry_name>
data_maestro.32

> <s_m_Source_Path>
C:\Users\olshana1\Git\GramNeg-Accumulation\Gram Negative Permeation - OmpF

> <s_m_Source_File>
data_maestro.csv

> <i_m_Source_File_Index>
32

> <s_m_job_name>
glide-dock_Nicaido_neutral

> <s_i_glide_gridfile>
3POX-grid

> <i_i_glide_lignum>
41

> <i_i_glide_rotatable_bonds>
2

> <r_i_docking_score>
-4.78931153168274

> <r_i_glide_ligand_efficiency>
-0.184204289680106

> <r_i_glide_ligand_efficiency_sa>
-0.545704483368432

> <r_i_glide_ligand_efficiency_ln>
-1.12475409820278

> <r_i_glide_gscore>
-4.78931153168274

> <r_i_glide_lipo>
-0.0269868696196995

> <r_i_glide_hbond>
-0.455720018990098

> <r_i_glide_metal>
0

> <r_i_glide_rewards>
-0.945221570454544

> <r_i_glide_evdw>
-21.5413131713867

> <r_i_glide_ecoul>
-13.4513339996338

> <r_i_glide_erotb>
0.146950134654495

> <r_i_glide_esite>
-0.413567448758494

> <r_i_glide_emodel>
-57.2645263459874

> <r_i_glide_energy>
-34.9926471710205

> <r_i_glide_einternal>
1.18448233604431

> <i_i_glide_confnum>
1

> <i_i_glide_posenum>
91

> <r_i_glide_eff_state_penalty>
0

> <r_glide_res:A132_vdw>
-1.41518743649644

> <r_glide_res:A132_coul>
-9.6456688834007

> <r_glide_res:A132_hbond>
-0.0273864439738126

> <r_glide_res:A132_dist>
2.11590884426932

> <r_glide_res:A132_Eint>
-11.088242763871

> <r_glide_res:A117_vdw>
-3.64891559515246

> <r_glide_res:A117_coul>
-6.08103388545753

> <r_glide_res:A117_hbond>
0

> <r_glide_res:A117_dist>
2.24491677007535

> <r_glide_res:A117_Eint>
-9.72994948061

> <r_glide_res:A113_vdw>
-2.93018851301777

> <r_glide_res:A113_coul>
-32.3611420315263

> <r_glide_res:A113_hbond>
-0.2

> <r_glide_res:A113_dist>
1.78401499169689

> <r_glide_res:A113_Eint>
-35.4913305445441

> <r_glide_res:A82_vdw>
-1.66210614652803

> <r_glide_res:A82_coul>
-6.87566182815579

> <r_glide_res:A82_hbond>
0

> <r_glide_res:A82_dist>
3.23669228177951

> <r_glide_res:A82_Eint>
-8.53776797468382

> <r_glide_res:A42_vdw>
-1.96202963236141

> <r_glide_res:A42_coul>
-8.22477100511032

> <r_glide_res:A42_hbond>
0

> <r_glide_res:A42_dist>
2.45195345435746

> <r_glide_res:A42_Eint>
-10.1868006374717

> <r_glide_res:A16_vdw>
-0.263360671735714

> <r_glide_res:A16_coul>
4.78269741778729

> <r_glide_res:A16_hbond>
0

> <r_glide_res:A16_dist>
3.84454674904529

> <r_glide_res:A16_Eint>
4.51933674605158

> <s_m_source_file>
ligprep_Nicaido_neutral.maegz

> <i_m_source_file_index>
32

> <i_lp_mmshare_version>
58128

> <i_f3d_flags>
0

> <s_lp_Force_Field>
S-OPLS

> <r_lp_Energy>
60.370079

> <b_lp_Chiralities_Consistent>
1

> <s_lp_Variant>
Ofloxacin-1

> <s_epik_input>
TzFbQ0gyXVtDQEhdKFtDSDNdKW4oYzJjMTMpW2NIXWMoQyg9TylbT0hdKWMoPU8pYzJbY0hdYyhGKWMzTjRbQ0gyXVtDSDJdTihbQ0gzXSlbQ0gyXVtDSDJdNA==

> <s_epik_cmdline>
J2VwaWtfcHl0aG9uJywgJy1waHQnLCAnMC4wJywgJy1waCcsICc3LjQnLCAnLW50JywgJy1tYScsICc1MDAnLCAnLWltYWUnLCAnPGluZmlsZS5tYWU+JywgJy1vbWFlJywgJzxvdXRmaWxlLm1hZT4n

> <r_lp_tautomer_probability>
1

> <r_epik_Ionization_Penalty>
  0.1907

> <r_epik_Ionization_Penalty_Charging>
  0.1907

> <r_epik_Ionization_Penalty_Neutral>
  0.0000

> <r_epik_State_Penalty>
  0.0000

> <r_epik_Charging_Adjusted_Penalty>
0.190712686691679

> <i_epik_Tot_Q>
0

> <i_epik_Tot_abs_Q>
2

> <s_m_subgroup_title>
glide-dock_Nicaido_neutral_pv1

> <s_m_subgroupid>
glide-dock_Nicaido_neutral_pv1

> <b_m_subgroup_collapsed>
0

$$$$
Cefacetrile
                    3D
 Schrodinger Suite 2022-2.
 35 36  0  0  1  0            999 V2000
  -29.5694  -17.2039  -27.0542 C   0  0  0  0  0  0
  -29.9820  -18.4560  -26.3061 C   0  0  0  0  0  0
  -30.5338  -18.2138  -25.1085 O   0  0  0  0  0  0
  -31.0002  -19.3012  -24.3172 C   0  0  0  0  0  0
  -29.9334  -19.8027  -23.3463 C   0  0  0  0  0  0
  -29.2484  -20.9739  -23.4722 C   0  0  0  0  0  0
  -28.2371  -21.3586  -22.5653 N   0  0  0  0  0  0
  -27.5556  -20.4330  -21.6778 C   0  0  2  0  0  0
  -26.9045  -21.6652  -21.0115 C   0  0  2  0  0  0
  -27.4411  -22.4455  -22.2369 C   0  0  0  0  0  0
  -27.2926  -23.5501  -22.7203 O   0  0  0  0  0  0
  -27.5491  -22.0411  -19.7473 N   0  0  0  0  0  0
  -27.4155  -23.2327  -19.1447 C   0  0  0  0  0  0
  -28.1775  -23.4450  -17.8365 C   0  0  0  0  0  0
  -28.5104  -24.8624  -17.6133 C   0  0  0  0  0  0
  -28.7688  -25.9808  -17.4487 N   0  0  0  0  0  0
  -26.7280  -24.1439  -19.6163 O   0  0  0  0  0  0
  -28.7687  -19.4132  -20.8132 S   0  0  0  0  0  0
  -29.7000  -18.7940  -22.2281 C   0  0  0  0  0  0
  -29.4281  -21.9526  -24.6846 C   0  0  0  0  0  0
  -28.3687  -22.3520  -25.2145 O   0  5  0  0  0  0
  -30.5841  -22.2802  -25.0288 O   0  0  0  0  0  0
  -29.8276  -19.5618  -26.8133 O   0  0  0  0  0  0
  -30.4280  -16.5522  -27.2144 H   0  0  0  0  0  0
  -28.8147  -16.6589  -26.4864 H   0  0  0  0  0  0
  -29.1498  -17.4588  -28.0269 H   0  0  0  0  0  0
  -31.4057  -20.0885  -24.9478 H   0  0  0  0  0  0
  -31.8494  -18.9476  -23.7313 H   0  0  0  0  0  0
  -26.8456  -19.8142  -22.2323 H   0  0  0  0  0  0
  -25.8191  -21.5786  -20.9478 H   0  0  0  0  0  0
  -28.1688  -21.3511  -19.3368 H   0  0  0  0  0  0
  -29.1061  -22.8741  -17.8344 H   0  0  0  0  0  0
  -27.5672  -23.0989  -17.0019 H   0  0  0  0  0  0
  -29.1689  -17.9479  -22.6546 H   0  0  0  0  0  0
  -30.6512  -18.4157  -21.8519 H   0  0  0  0  0  0
  1  2  1  0  0  0
  1 24  1  0  0  0
  1 25  1  0  0  0
  1 26  1  0  0  0
  2  3  1  0  0  0
  2 23  2  0  0  0
  3  4  1  0  0  0
  4  5  1  0  0  0
  4 27  1  0  0  0
  4 28  1  0  0  0
  5 19  1  0  0  0
  5  6  2  0  0  0
  6  7  1  0  0  0
  6 20  1  0  0  0
  7 10  1  0  0  0
  7  8  1  0  0  0
  8  9  1  0  0  0
  8 18  1  0  0  0
  8 29  1  0  0  0
  9 10  1  0  0  0
  9 12  1  0  0  0
  9 30  1  0  0  0
 10 11  2  0  0  0
 12 13  1  0  0  0
 12 31  1  0  0  0
 13 14  1  0  0  0
 13 17  2  0  0  0
 14 15  1  0  0  0
 14 32  1  0  0  0
 14 33  1  0  0  0
 15 16  3  0  0  0
 18 19  1  0  0  0
 19 34  1  0  0  0
 19 35  1  0  0  0
 20 21  1  0  0  0
 20 22  2  0  0  0
M  CHG  1  21  -1
M  END
> <s_m_entry_id>
27515

> <s_m_entry_name>
data_maestro.1

> <s_m_Source_Path>
C:\Users\olshana1\Git\GramNeg-Accumulation\Gram Negative Permeation - OmpF

> <s_m_Source_File>
data_maestro.csv

> <i_m_Source_File_Index>
1

> <s_m_job_name>
glide-dock_Nicaido_neutral

> <s_i_glide_gridfile>
3POX-grid

> <i_i_glide_lignum>
1

> <i_i_glide_rotatable_bonds>
7

> <r_i_docking_score>
-4.7746030645541

> <r_i_glide_ligand_efficiency>
-0.207591437589309

> <r_i_glide_ligand_efficiency_sa>
-0.590362434043126

> <r_i_glide_ligand_efficiency_ln>
-1.15454231471615

> <r_i_glide_gscore>
-4.7746030645541

> <r_i_glide_lipo>
0

> <r_i_glide_hbond>
-0.742299918520301

> <r_i_glide_metal>
0

> <r_i_glide_rewards>
-1.10238488586987

> <r_i_glide_evdw>
-24.8391761779785

> <r_i_glide_ecoul>
-11.9535121917725

> <r_i_glide_erotb>
0.660867222788296

> <r_i_glide_esite>
-0.555799845287431

> <r_i_glide_emodel>
-60.2562517664936

> <r_i_glide_energy>
-36.792688369751

> <r_i_glide_einternal>
1.45627272129059

> <i_i_glide_confnum>
4

> <i_i_glide_posenum>
299

> <r_i_glide_eff_state_penalty>
0

> <r_glide_res:A132_vdw>
-2.5357066773584

> <r_glide_res:A132_coul>
-35.2428547107543

> <r_glide_res:A132_hbond>
-0.163571543220758

> <r_glide_res:A132_dist>
2.18358544854566

> <r_glide_res:A132_Eint>
-37.9421329313335

> <r_glide_res:A117_vdw>
-3.91180380261622

> <r_glide_res:A117_coul>
20.2106636262797

> <r_glide_res:A117_hbond>
0

> <r_glide_res:A117_dist>
2.13085577273905

> <r_glide_res:A117_Eint>
16.2988598236635

> <r_glide_res:A113_vdw>
-2.06520959589478

> <r_glide_res:A113_coul>
16.8235392476866

> <r_glide_res:A113_hbond>
0

> <r_glide_res:A113_dist>
2.33338860125756

> <r_glide_res:A113_Eint>
14.7583296517918

> <r_glide_res:A82_vdw>
-1.31581538953771

> <r_glide_res:A82_coul>
-42.0952588412275

> <r_glide_res:A82_hbond>
-0.16

> <r_glide_res:A82_dist>
1.94823913897646

> <r_glide_res:A82_Eint>
-43.5710742307653

> <r_glide_res:A42_vdw>
0.165322752344669

> <r_glide_res:A42_coul>
-53.122077189515

> <r_glide_res:A42_hbond>
-0.348607465484987

> <r_glide_res:A42_dist>
1.90435745055869

> <r_glide_res:A42_Eint>
-53.3053619026553

> <r_glide_res:A16_vdw>
-0.0387656574412723

> <r_glide_res:A16_coul>
-41.2885762083489

> <r_glide_res:A16_hbond>
-0.0701209098145555

> <r_glide_res:A16_dist>
2.11646734417614

> <r_glide_res:A16_Eint>
-41.3974627756048

> <s_m_source_file>
ligprep_Nicaido_neutral.maegz

> <i_m_source_file_index>
1

> <i_lp_mmshare_version>
58128

> <i_f3d_flags>
0

> <s_lp_Force_Field>
S-OPLS

> <r_lp_Energy>
24.277434

> <b_lp_Chiralities_Consistent>
1

> <s_lp_Variant>
Cefacetrile-1

> <s_epik_input>
W0NIM11DKD1PKU9bQ0gyXUMoPUMxQyg9TylbT0hdKVtDSDJdU1tDQEhdKE4xMilbQ0BIXShDMj1PKVtOSF1DKD1PKVtDSDJdQyNO

> <s_epik_cmdline>
J2VwaWtfcHl0aG9uJywgJy1waHQnLCAnMC4wJywgJy1waCcsICc3LjQnLCAnLW50JywgJy1tYScsICc1MDAnLCAnLWltYWUnLCAnPGluZmlsZS5tYWU+JywgJy1vbWFlJywgJzxvdXRmaWxlLm1hZT4n

> <r_lp_tautomer_probability>
1

> <r_epik_Ionization_Penalty>
  0.0000

> <r_epik_Ionization_Penalty_Charging>
  0.0000

> <r_epik_Ionization_Penalty_Neutral>
  0.0000

> <r_epik_State_Penalty>
  0.0000

> <r_epik_Charging_Adjusted_Penalty>
5.96156609429709e-06

> <i_epik_Tot_Q>
-1

> <i_epik_Tot_abs_Q>
1

> <s_epik_Chemistry_Notes>
This compound has an ester and may undergo hydrolysis at high or low pH. This compound contains an acetal/aminal-like group ( X-CH(R)-Y where X, Y are N, S, or O) that may be acid/base labile, releasing an aldehyde.

> <s_m_subgroup_title>
glide-dock_Nicaido_neutral_pv1

> <s_m_subgroupid>
glide-dock_Nicaido_neutral_pv1

> <b_m_subgroup_collapsed>
0

$$$$
Cephaloridine
                    3D
 Schrodinger Suite 2022-2.
 45 48  0  0  1  0            999 V2000
  -26.9280  -23.9497  -21.1795 O   0  0  0  0  0  0
  -27.6193  -22.9571  -21.1511 C   0  0  0  0  0  0
  -28.8279  -22.4079  -20.3536 C   0  0  2  0  0  0
  -30.1009  -23.1373  -20.4682 N   0  0  0  0  0  0
  -30.5710  -23.9200  -21.4629 C   0  0  0  0  0  0
  -32.0571  -24.2711  -21.4129 C   0  0  0  0  0  0
  -32.8905  -23.0995  -21.8248 C   0  0  0  0  0  0
  -33.2805  -22.0334  -21.0530 C   0  0  0  0  0  0
  -34.0722  -21.0852  -21.7604 C   0  0  0  0  0  0
  -34.2804  -21.4388  -23.0682 C   0  0  0  0  0  0
  -33.4983  -22.9478  -23.4554 S   0  0  0  0  0  0
  -29.8895  -24.3494  -22.3962 O   0  0  0  0  0  0
  -28.7553  -21.1844  -21.2958 C   0  0  2  0  0  0
  -27.5648  -21.7897  -21.8634 N   0  0  0  0  0  0
  -26.7814  -21.1520  -22.8226 C   0  0  0  0  0  0
  -26.5105  -21.9492  -24.1298 C   0  0  0  0  0  0
  -27.5069  -22.3495  -24.7820 O   0  5  0  0  0  0
  -25.3108  -22.1525  -24.4139 O   0  0  0  0  0  0
  -26.3482  -19.9004  -22.5556 C   0  0  0  0  0  0
  -25.5125  -19.0406  -23.5035 C   0  0  0  0  0  0
  -24.1526  -18.8490  -22.9658 N   0  3  0  0  0  0
  -23.1921  -19.7609  -23.2631 C   0  0  0  0  0  0
  -21.8890  -19.6332  -22.7407 C   0  0  0  0  0  0
  -21.5917  -18.5433  -21.9014 C   0  0  0  0  0  0
  -22.6016  -17.6042  -21.6134 C   0  0  0  0  0  0
  -23.8850  -17.7785  -22.1750 C   0  0  0  0  0  0
  -26.6297  -19.3106  -21.1761 C   0  0  0  0  0  0
  -28.3690  -19.4933  -20.6964 S   0  0  0  0  0  0
  -28.5968  -22.1301  -19.3234 H   0  0  0  0  0  0
  -30.7677  -22.8521  -19.7510 H   0  0  0  0  0  0
  -32.3285  -24.6010  -20.4134 H   0  0  0  0  0  0
  -32.2496  -25.1185  -22.0738 H   0  0  0  0  0  0
  -33.0270  -21.8957  -20.0130 H   0  0  0  0  0  0
  -34.4543  -20.1906  -21.2874 H   0  0  0  0  0  0
  -34.8405  -20.9037  -23.8201 H   0  0  0  0  0  0
  -29.5550  -21.1507  -22.0383 H   0  0  0  0  0  0
  -25.4254  -19.4546  -24.5084 H   0  0  0  0  0  0
  -25.9659  -18.0596  -23.6137 H   0  0  0  0  0  0
  -23.4823  -20.5736  -23.9095 H   0  0  0  0  0  0
  -21.1282  -20.3606  -22.9844 H   0  0  0  0  0  0
  -20.5998  -18.4206  -21.4906 H   0  0  0  0  0  0
  -22.3843  -16.7505  -20.9877 H   0  0  0  0  0  0
  -24.6953  -17.0811  -22.0118 H   0  0  0  0  0  0
  -26.0080  -19.8285  -20.4451 H   0  0  0  0  0  0
  -26.3693  -18.2597  -21.1107 H   0  0  0  0  0  0
  1  2  2  0  0  0
  2 14  1  0  0  0
  2  3  1  0  0  0
  3  4  1  0  0  0
  3 13  1  0  0  0
  3 29  1  0  0  0
  4  5  1  0  0  0
  4 30  1  0  0  0
  5  6  1  0  0  0
  5 12  2  0  0  0
  6  7  1  0  0  0
  6 31  1  0  0  0
  6 32  1  0  0  0
  7 11  1  0  0  0
  7  8  2  0  0  0
  8  9  1  0  0  0
  8 33  1  0  0  0
  9 10  2  0  0  0
  9 34  1  0  0  0
 10 11  1  0  0  0
 10 35  1  0  0  0
 13 28  1  0  0  0
 13 14  1  0  0  0
 13 36  1  0  0  0
 14 15  1  0  0  0
 15 16  1  0  0  0
 15 19  2  0  0  0
 16 17  1  0  0  0
 16 18  2  0  0  0
 19 20  1  0  0  0
 19 27  1  0  0  0
 20 21  1  0  0  0
 20 37  1  0  0  0
 20 38  1  0  0  0
 21 26  1  0  0  0
 21 22  2  0  0  0
 22 23  1  0  0  0
 22 39  1  0  0  0
 23 24  2  0  0  0
 23 40  1  0  0  0
 24 25  1  0  0  0
 24 41  1  0  0  0
 25 26  2  0  0  0
 25 42  1  0  0  0
 26 43  1  0  0  0
 27 28  1  0  0  0
 27 44  1  0  0  0
 27 45  1  0  0  0
M  CHG  2  17  -1  21   1
M  END
> <s_m_entry_id>
27516

> <s_m_entry_name>
data_maestro.13

> <s_m_Source_Path>
C:\Users\olshana1\Git\GramNeg-Accumulation\Gram Negative Permeation - OmpF

> <s_m_Source_File>
data_maestro.csv

> <i_m_Source_File_Index>
13

> <s_m_job_name>
glide-dock_Nicaido_neutral

> <s_i_glide_gridfile>
3POX-grid

> <i_i_glide_lignum>
18

> <i_i_glide_rotatable_bonds>
7

> <r_i_docking_score>
-4.77376206802005

> <r_i_glide_ligand_efficiency>
-0.170491502429287

> <r_i_glide_ligand_efficiency_sa>
-0.517712615500245

> <r_i_glide_ligand_efficiency_ln>
-1.10192444904384

> <r_i_glide_gscore>
-4.77376206802005

> <r_i_glide_lipo>
-0.0342264144363171

> <r_i_glide_hbond>
-0.72445203247948

> <r_i_glide_metal>
0

> <r_i_glide_rewards>
-0.563988438445397

> <r_i_glide_evdw>
-22.1721343994141

> <r_i_glide_ecoul>
-15.8894138336182

> <r_i_glide_erotb>
0.571951339556603

> <r_i_glide_esite>
-0.531027727202029

> <r_i_glide_emodel>
-59.5544573465288

> <r_i_glide_energy>
-38.0615482330322

> <r_i_glide_einternal>
6.98710489273071

> <i_i_glide_confnum>
52

> <i_i_glide_posenum>
203

> <r_i_glide_eff_state_penalty>
0

> <r_glide_res:A132_vdw>
-1.47755650839712

> <r_glide_res:A132_coul>
-16.0584013596907

> <r_glide_res:A132_hbond>
-0.198911264275053

> <r_glide_res:A132_dist>
2.04141940549362

> <r_glide_res:A132_Eint>
-17.7348691323629

> <r_glide_res:A117_vdw>
-3.44817778500523

> <r_glide_res:A117_coul>
-17.0716849979296

> <r_glide_res:A117_hbond>
0

> <r_glide_res:A117_dist>
2.12341871790753

> <r_glide_res:A117_Eint>
-20.5198627829348

> <r_glide_res:A113_vdw>
-3.75121926932231

> <r_glide_res:A113_coul>
-10.0601410059363

> <r_glide_res:A113_hbond>
-0.16

> <r_glide_res:A113_dist>
1.8788771507269

> <r_glide_res:A113_Eint>
-13.9713602752586

> <r_glide_res:A82_vdw>
-1.19903305024658

> <r_glide_res:A82_coul>
-26.3986788730452

> <r_glide_res:A82_hbond>
-0.16

> <r_glide_res:A82_dist>
1.79302781597869

> <r_glide_res:A82_Eint>
-27.7577119232918

> <r_glide_res:A42_vdw>
2.48462315165974

> <r_glide_res:A42_coul>
-30.9677609221142

> <r_glide_res:A42_hbond>
-0.205540768204427

> <r_glide_res:A42_dist>
1.65728760008465

> <r_glide_res:A42_Eint>
-28.6886785386589

> <r_glide_res:A16_vdw>
-0.275373782384297

> <r_glide_res:A16_coul>
-9.65450617964483

> <r_glide_res:A16_hbond>
0

> <r_glide_res:A16_dist>
4.50695010066641

> <r_glide_res:A16_Eint>
-9.92987996202913

> <s_m_source_file>
ligprep_Nicaido_neutral.maegz

> <i_m_source_file_index>
13

> <i_lp_mmshare_version>
58128

> <i_f3d_flags>
0

> <s_lp_Force_Field>
S-OPLS

> <r_lp_Energy>
50.740529

> <b_lp_Chiralities_Consistent>
1

> <s_lp_Variant>
Cephaloridine-1

> <s_epik_input>
czFbY0hdW2NIXVtjSF1jMVtDSDJdQyg9TylbTkhdW0NASF0yQyg9TylOKFtDQEBIXTIzKUMoQyg9TylbT0hdKT1DKFtDSDJdUzMpW0NIMl1bbitdNFtjSF1bY0hdW2NIXVtjSF1bY0hdNA==

> <s_epik_cmdline>
J2VwaWtfcHl0aG9uJywgJy1waHQnLCAnMC4wJywgJy1waCcsICc3LjQnLCAnLW50JywgJy1tYScsICc1MDAnLCAnLWltYWUnLCAnPGluZmlsZS5tYWU+JywgJy1vbWFlJywgJzxvdXRmaWxlLm1hZT4n

> <r_lp_tautomer_probability>
1

> <r_epik_Ionization_Penalty>
  0.0000

> <r_epik_Ionization_Penalty_Charging>
  0.0000

> <r_epik_Ionization_Penalty_Neutral>
  0.0000

> <r_epik_State_Penalty>
  0.0000

> <r_epik_Charging_Adjusted_Penalty>
1.62498989321064e-05

> <i_epik_Tot_Q>
0

> <i_epik_Tot_abs_Q>
2

> <s_epik_Chemistry_Notes>
This compound contains an acetal/aminal-like group ( X-CH(R)-Y where X, Y are N, S, or O) that may be acid/base labile, releasing an aldehyde.

> <s_m_subgroup_title>
glide-dock_Nicaido_neutral_pv1

> <s_m_subgroupid>
glide-dock_Nicaido_neutral_pv1

> <b_m_subgroup_collapsed>
0

$$$$
LY097964
                    3D
 Schrodinger Suite 2022-2.
 40 42  0  0  1  0            999 V2000
  -23.9864  -24.7862  -17.6134 C   0  0  0  0  0  0
  -24.4526  -23.5667  -18.1515 O   0  0  0  0  0  0
  -25.7312  -23.7909  -18.6816 N   0  0  0  0  0  0
  -26.3305  -22.7204  -19.0385 C   0  0  0  0  0  0
  -25.7835  -21.3400  -18.8454 C   0  0  0  0  0  0
  -25.3478  -20.9062  -17.6135 C   0  0  0  0  0  0
  -24.7019  -19.2891  -17.6681 S   0  0  0  0  0  0
  -25.0585  -19.2534  -19.3861 C   0  0  0  0  0  0
  -24.7689  -18.1509  -20.1660 N   0  0  0  0  0  0
  -25.6071  -20.3760  -19.8493 N   0  0  0  0  0  0
  -27.6863  -22.8407  -19.7226 C   0  0  0  0  0  0
  -28.2597  -21.6805  -20.0921 N   0  0  0  0  0  0
  -29.4462  -21.5202  -20.9405 C   0  0  1  0  0  0
  -29.3366  -20.2361  -21.7902 C   0  0  1  0  0  0
  -29.5179  -21.0666  -22.9649 N   0  0  0  0  0  0
  -29.3872  -22.2758  -22.2971 C   0  0  0  0  0  0
  -29.2672  -23.4244  -22.6778 O   0  0  0  0  0  0
  -29.5470  -20.5305  -24.2684 C   0  0  0  0  0  0
  -29.2212  -21.5537  -25.4100 C   0  0  0  0  0  0
  -28.2722  -22.3493  -25.2134 O   0  5  0  0  0  0
  -29.9689  -21.5496  -26.4134 O   0  0  0  0  0  0
  -29.7862  -19.2077  -24.4992 C   0  0  0  0  0  0
  -30.1546  -18.2073  -23.4042 C   0  0  0  0  0  0
  -30.6254  -18.9583  -21.8265 S   0  0  0  0  0  0
  -29.7087  -18.5362  -25.8662 C   0  0  0  0  0  0
  -28.1733  -23.9496  -19.9616 O   0  0  0  0  0  0
  -23.0027  -24.6328  -17.1702 H   0  0  0  0  0  0
  -24.6560  -25.1496  -16.8324 H   0  0  0  0  0  0
  -23.8936  -25.5495  -18.3868 H   0  0  0  0  0  0
  -25.3546  -21.4518  -16.6816 H   0  0  0  0  0  0
  -25.2324  -18.0607  -21.0608 H   0  0  0  0  0  0
  -24.5568  -17.2775  -19.7078 H   0  0  0  0  0  0
  -27.7916  -20.8221  -19.8312 H   0  0  0  0  0  0
  -30.3961  -21.5973  -20.4134 H   0  0  0  0  0  0
  -28.3407  -19.7858  -21.7864 H   0  0  0  0  0  0
  -29.3048  -17.5496  -23.2388 H   0  0  0  0  0  0
  -30.9810  -17.5783  -23.7366 H   0  0  0  0  0  0
  -29.1287  -17.6149  -25.7932 H   0  0  0  0  0  0
  -29.2281  -19.1428  -26.6307 H   0  0  0  0  0  0
  -30.7085  -18.2735  -26.2115 H   0  0  0  0  0  0
  1  2  1  0  0  0
  1 27  1  0  0  0
  1 28  1  0  0  0
  1 29  1  0  0  0
  2  3  1  0  0  0
  3  4  2  3  0  0
  4  5  1  0  0  0
  4 11  1  0  0  0
  5 10  1  0  0  0
  5  6  2  0  0  0
  6  7  1  0  0  0
  6 30  1  0  0  0
  7  8  1  0  0  0
  8  9  1  0  0  0
  8 10  2  0  0  0
  9 31  1  0  0  0
  9 32  1  0  0  0
 11 12  1  0  0  0
 11 26  2  0  0  0
 12 13  1  0  0  0
 12 33  1  0  0  0
 13 16  1  0  0  0
 13 14  1  0  0  0
 13 34  1  0  0  0
 14 24  1  0  0  0
 14 15  1  0  0  0
 14 35  1  0  0  0
 15 16  1  0  0  0
 15 18  1  0  0  0
 16 17  2  0  0  0
 18 19  1  0  0  0
 18 22  2  0  0  0
 19 20  1  0  0  0
 19 21  2  0  0  0
 22 23  1  0  0  0
 22 25  1  0  0  0
 23 24  1  0  0  0
 23 36  1  0  0  0
 23 37  1  0  0  0
 25 38  1  0  0  0
 25 39  1  0  0  0
 25 40  1  0  0  0
M  CHG  1  20  -1
M  END
> <s_m_entry_id>
27517

> <s_m_entry_name>
data_maestro.7

> <s_m_Source_Path>
C:\Users\olshana1\Git\GramNeg-Accumulation\Gram Negative Permeation - OmpF

> <s_m_Source_File>
data_maestro.csv

> <i_m_Source_File_Index>
7

> <s_m_job_name>
glide-dock_Nicaido_neutral

> <s_i_glide_gridfile>
3POX-grid

> <i_i_glide_lignum>
9

> <i_i_glide_rotatable_bonds>
6

> <r_i_docking_score>
-4.76707710777112

> <r_i_glide_ligand_efficiency>
-0.183349119529659

> <r_i_glide_ligand_efficiency_sa>
-0.543171045162665

> <r_i_glide_ligand_efficiency_ln>
-1.11953241670423

> <r_i_glide_gscore>
-4.76707710777112

> <r_i_glide_lipo>
0

> <r_i_glide_hbond>
-0.778468537643119

> <r_i_glide_metal>
0

> <r_i_glide_rewards>
-0.703592925476161

> <r_i_glide_evdw>
-31.3132286071777

> <r_i_glide_ecoul>
-11.5335168838501

> <r_i_glide_erotb>
0.622478626066327

> <r_i_glide_esite>
-0.61180530778177

> <r_i_glide_emodel>
-65.0747125123053

> <r_i_glide_energy>
-42.8467454910278

> <r_i_glide_einternal>
3.42168760299683

> <i_i_glide_confnum>
27

> <i_i_glide_posenum>
250

> <r_i_glide_eff_state_penalty>
0

> <r_glide_res:A132_vdw>
-1.27037554463789

> <r_glide_res:A132_coul>
-34.1438652263862

> <r_glide_res:A132_hbond>
-0.16

> <r_glide_res:A132_dist>
1.82992430392641

> <r_glide_res:A132_Eint>
-35.5742407710241

> <r_glide_res:A117_vdw>
-3.90048221366915

> <r_glide_res:A117_coul>
22.3985289797939

> <r_glide_res:A117_hbond>
0

> <r_glide_res:A117_dist>
2.27379513831625

> <r_glide_res:A117_Eint>
18.4980467661247

> <r_glide_res:A113_vdw>
-3.61621855994765

> <r_glide_res:A113_coul>
17.9905734000581

> <r_glide_res:A113_hbond>
0

> <r_glide_res:A113_dist>
2.45410313381023

> <r_glide_res:A113_Eint>
14.3743548401105

> <r_glide_res:A82_vdw>
-1.67260266107732

> <r_glide_res:A82_coul>
-40.1180796182852

> <r_glide_res:A82_hbond>
-0.033732070221911

> <r_glide_res:A82_dist>
2.41566982444522

> <r_glide_res:A82_Eint>
-41.8244143495845

> <r_glide_res:A42_vdw>
1.01586781816516

> <r_glide_res:A42_coul>
-53.6674762548421

> <r_glide_res:A42_hbond>
-0.384736467421208

> <r_glide_res:A42_dist>
1.82961752111295

> <r_glide_res:A42_Eint>
-53.0363449040982

> <r_glide_res:A16_vdw>
0.441354979282789

> <r_glide_res:A16_coul>
-48.7200291478592

> <r_glide_res:A16_hbond>
-0.2

> <r_glide_res:A16_dist>
1.77959433402888

> <r_glide_res:A16_Eint>
-48.4786741685764

> <s_m_source_file>
ligprep_Nicaido_neutral.maegz

> <i_m_source_file_index>
7

> <i_lp_mmshare_version>
58128

> <i_f3d_flags>
0

> <s_lp_Force_Field>
S-OPLS

> <r_lp_Energy>
53.750759

> <b_lp_Chiralities_Consistent>
1

> <s_lp_Variant>
LY097964-1

> <s_epik_input>
W05IMl1jKG4xKXNbY0hdYzEvQyg9TlxPW0NIM10pQyg9TylbTkhdW0NAQEhdMkMoPU8pTihbQ0BIXTIzKUMoQyg9TylbT0hdKT1DKFtDSDJdUzMpW0NIM10=

> <s_epik_cmdline>
J2VwaWtfcHl0aG9uJywgJy1waHQnLCAnMC4wJywgJy1waCcsICc3LjQnLCAnLW50JywgJy1tYScsICc1MDAnLCAnLWltYWUnLCAnPGluZmlsZS5tYWU+JywgJy1vbWFlJywgJzxvdXRmaWxlLm1hZT4n

> <r_lp_tautomer_probability>
1

> <r_epik_Ionization_Penalty>
  0.0005

> <r_epik_Ionization_Penalty_Charging>
  0.0000

> <r_epik_Ionization_Penalty_Neutral>
  0.0005

> <r_epik_State_Penalty>
  0.0000

> <r_epik_Charging_Adjusted_Penalty>
1.64985111359435e-05

> <i_epik_Tot_Q>
-1

> <i_epik_Tot_abs_Q>
1

> <s_epik_Chemistry_Notes>
This compound has an imine and may undergo hydrolysis. This compound contains an acetal/aminal-like group ( X-CH(R)-Y where X, Y are N, S, or O) that may be acid/base labile, releasing an aldehyde.

> <s_m_subgroup_title>
glide-dock_Nicaido_neutral_pv1

> <s_m_subgroupid>
glide-dock_Nicaido_neutral_pv1

> <b_m_subgroup_collapsed>
0

$$$$
Ceftizoxime
                    3D
 Schrodinger Suite 2022-2.
 37 39  0  0  1  0            999 V2000
  -24.7658  -24.9680  -17.6783 C   0  0  0  0  0  0
  -25.6190  -24.3311  -18.6073 O   0  0  0  0  0  0
  -25.2327  -22.9841  -18.6660 N   0  0  0  0  0  0
  -26.0556  -22.2026  -19.2533 C   0  0  0  0  0  0
  -25.6975  -20.7522  -19.2884 C   0  0  0  0  0  0
  -25.7324  -19.9953  -20.4418 C   0  0  0  0  0  0
  -25.1681  -18.3659  -20.1830 S   0  0  0  0  0  0
  -24.8568  -18.7826  -18.5080 C   0  0  0  0  0  0
  -24.3402  -17.8615  -17.6149 N   0  0  0  0  0  0
  -25.1690  -20.0418  -18.1996 N   0  0  0  0  0  0
  -27.3686  -22.6252  -19.9358 C   0  0  0  0  0  0
  -28.2398  -21.6154  -20.1336 N   0  0  0  0  0  0
  -29.4430  -21.5980  -20.9792 C   0  0  1  0  0  0
  -29.4562  -20.3141  -21.8426 C   0  0  1  0  0  0
  -29.4681  -21.1643  -23.0169 N   0  0  0  0  0  0
  -29.3393  -22.3624  -22.3358 C   0  0  0  0  0  0
  -29.2147  -23.5118  -22.7135 O   0  0  0  0  0  0
  -29.4826  -20.6323  -24.3186 C   0  0  0  0  0  0
  -28.9831  -21.5497  -25.4770 C   0  0  0  0  0  0
  -29.5693  -21.4570  -26.5785 O   0  5  0  0  0  0
  -28.0547  -22.3491  -25.2133 O   0  0  0  0  0  0
  -29.8646  -19.3582  -24.5634 C   0  0  0  0  0  0
  -30.3606  -18.3651  -23.5212 C   0  0  0  0  0  0
  -30.8727  -19.1750  -21.9807 S   0  0  0  0  0  0
  -27.5698  -23.7849  -20.3148 O   0  0  0  0  0  0
  -25.1690  -25.9495  -17.4321 H   0  0  0  0  0  0
  -23.7615  -25.0912  -18.0874 H   0  0  0  0  0  0
  -24.6980  -24.3985  -16.7513 H   0  0  0  0  0  0
  -26.0518  -20.2876  -21.4316 H   0  0  0  0  0  0
  -24.4338  -18.0459  -16.6259 H   0  0  0  0  0  0
  -24.3414  -16.8821  -17.8620 H   0  0  0  0  0  0
  -28.0295  -20.7287  -19.6963 H   0  0  0  0  0  0
  -30.3721  -21.7455  -20.4291 H   0  0  0  0  0  0
  -28.5225  -19.7478  -21.7947 H   0  0  0  0  0  0
  -29.8118  -18.9750  -25.5729 H   0  0  0  0  0  0
  -29.5701  -17.6463  -23.3085 H   0  0  0  0  0  0
  -31.2063  -17.8051  -23.9189 H   0  0  0  0  0  0
  1  2  1  0  0  0
  1 26  1  0  0  0
  1 27  1  0  0  0
  1 28  1  0  0  0
  2  3  1  0  0  0
  3  4  2  3  0  0
  4  5  1  0  0  0
  4 11  1  0  0  0
  5 10  1  0  0  0
  5  6  2  0  0  0
  6  7  1  0  0  0
  6 29  1  0  0  0
  7  8  1  0  0  0
  8  9  1  0  0  0
  8 10  2  0  0  0
  9 30  1  0  0  0
  9 31  1  0  0  0
 11 12  1  0  0  0
 11 25  2  0  0  0
 12 13  1  0  0  0
 12 32  1  0  0  0
 13 16  1  0  0  0
 13 14  1  0  0  0
 13 33  1  0  0  0
 14 24  1  0  0  0
 14 15  1  0  0  0
 14 34  1  0  0  0
 15 16  1  0  0  0
 15 18  1  0  0  0
 16 17  2  0  0  0
 18 19  1  0  0  0
 18 22  2  0  0  0
 19 20  1  0  0  0
 19 21  2  0  0  0
 22 23  1  0  0  0
 22 35  1  0  0  0
 23 24  1  0  0  0
 23 36  1  0  0  0
 23 37  1  0  0  0
M  CHG  1  20  -1
M  END
> <s_m_entry_id>
27518

> <s_m_entry_name>
data_maestro.5

> <s_m_Source_Path>
C:\Users\olshana1\Git\GramNeg-Accumulation\Gram Negative Permeation - OmpF

> <s_m_Source_File>
data_maestro.csv

> <i_m_Source_File_Index>
5

> <s_m_job_name>
glide-dock_Nicaido_neutral

> <s_i_glide_gridfile>
3POX-grid

> <i_i_glide_lignum>
6

> <i_i_glide_rotatable_bonds>
6

> <r_i_docking_score>
-4.76592727625331

> <r_i_glide_ligand_efficiency>
-0.190637091050132

> <r_i_glide_ligand_efficiency_sa>
-0.557426235193793

> <r_i_glide_ligand_efficiency_ln>
-1.12966758778737

> <r_i_glide_gscore>
-4.76592727625331

> <r_i_glide_lipo>
0

> <r_i_glide_hbond>
-0.791446555413884

> <r_i_glide_metal>
0

> <r_i_glide_rewards>
-0.788392208892219

> <r_i_glide_evdw>
-29.2302379608154

> <r_i_glide_ecoul>
-11.8679990768433

> <r_i_glide_erotb>
0.664075194683877

> <r_i_glide_esite>
-0.608451947063823

> <r_i_glide_emodel>
-61.3133861403364

> <r_i_glide_energy>
-41.0982370376587

> <r_i_glide_einternal>
5.42748212814331

> <i_i_glide_confnum>
22

> <i_i_glide_posenum>
334

> <r_i_glide_eff_state_penalty>
0

> <r_glide_res:A132_vdw>
-1.99912026426782

> <r_glide_res:A132_coul>
-35.885177779781

> <r_glide_res:A132_hbond>
-0.16

> <r_glide_res:A132_dist>
2.03254066621469

> <r_glide_res:A132_Eint>
-38.0442980440488

> <r_glide_res:A117_vdw>
-3.72985790847601

> <r_glide_res:A117_coul>
21.8799042397546

> <r_glide_res:A117_hbond>
0

> <r_glide_res:A117_dist>
2.49173132854508

> <r_glide_res:A117_Eint>
18.1500463312786

> <r_glide_res:A113_vdw>
-3.62548258320349

> <r_glide_res:A113_coul>
16.1325530079212

> <r_glide_res:A113_hbond>
0

> <r_glide_res:A113_dist>
2.45730882148573

> <r_glide_res:A113_Eint>
12.5070704247177

> <r_glide_res:A82_vdw>
-1.72828586957042

> <r_glide_res:A82_coul>
-40.5896807889805

> <r_glide_res:A82_hbond>
-0.0691340130660189

> <r_glide_res:A82_dist>
2.32716496733495

> <r_glide_res:A82_Eint>
-42.3871006716169

> <r_glide_res:A42_vdw>
3.26734456095463

> <r_glide_res:A42_coul>
-54.2016901283781

> <r_glide_res:A42_hbond>
-0.362312542347865

> <r_glide_res:A42_dist>
1.66584214069436

> <r_glide_res:A42_Eint>
-51.2966581097714

> <r_glide_res:A16_vdw>
0.816042213012564

> <r_glide_res:A16_coul>
-47.9837505248677

> <r_glide_res:A16_hbond>
-0.2

> <r_glide_res:A16_dist>
1.72791007794194

> <r_glide_res:A16_Eint>
-47.3677083118551

> <s_m_source_file>
ligprep_Nicaido_neutral.maegz

> <i_m_source_file_index>
5

> <i_lp_mmshare_version>
58128

> <i_f3d_flags>
0

> <s_lp_Force_Field>
S-OPLS

> <r_lp_Energy>
52.500132

> <b_lp_Chiralities_Consistent>
1

> <s_lp_Variant>
Ceftizoxime-2

> <s_epik_input>
W05IMl1jKG4xKXNbY0hdYzEvQyg9TlxPW0NIM10pQyg9TylbTkhdW0NAQEhdMkMoPU8pTihbQ0BIXTIzKUMoQyg9TylbT0hdKT1bQ0hdW0NIMl1TMw==

> <s_epik_cmdline>
J2VwaWtfcHl0aG9uJywgJy1waHQnLCAnMC4wJywgJy1waCcsICc3LjQnLCAnLW50JywgJy1tYScsICc1MDAnLCAnLWltYWUnLCAnPGluZmlsZS5tYWU+JywgJy1vbWFlJywgJzxvdXRmaWxlLm1hZT4n

> <r_lp_tautomer_probability>
1

> <r_epik_Ionization_Penalty>
  0.0005

> <r_epik_Ionization_Penalty_Charging>
  0.0000

> <r_epik_Ionization_Penalty_Neutral>
  0.0005

> <r_epik_State_Penalty>
  0.0000

> <r_epik_Charging_Adjusted_Penalty>
4.86746471452517e-05

> <i_epik_Tot_Q>
-1

> <i_epik_Tot_abs_Q>
1

> <s_epik_Chemistry_Notes>
This compound has an imine and may undergo hydrolysis. This compound contains an acetal/aminal-like group ( X-CH(R)-Y where X, Y are N, S, or O) that may be acid/base labile, releasing an aldehyde.

> <s_m_subgroup_title>
glide-dock_Nicaido_neutral_pv1

> <s_m_subgroupid>
glide-dock_Nicaido_neutral_pv1

> <b_m_subgroup_collapsed>
0

$$$$
Aztreonam
                    3D
 Schrodinger Suite 2022-2.
 43 44  0  0  1  0            999 V2000
  -30.6436  -22.0781  -22.2875 C   0  0  0  0  0  0
  -30.6564  -21.0184  -23.3938 C   0  0  1  0  0  0
  -29.4066  -20.1603  -23.7202 C   0  0  2  0  0  0
  -29.7527  -20.5058  -25.2001 C   0  0  0  0  0  0
  -30.5044  -21.5646  -24.7396 N   0  0  0  0  0  0
  -31.5187  -22.7171  -25.3829 S   0  0  0  0  0  0
  -32.8725  -22.2195  -25.1050 O   0  0  0  0  0  0
  -31.1515  -23.9499  -24.6702 O   0  5  0  0  0  0
  -31.1689  -22.7501  -26.8133 O   0  0  0  0  0  0
  -29.5689  -20.0555  -26.3117 O   0  0  0  0  0  0
  -28.1775  -20.7286  -23.1212 N   0  0  0  0  0  0
  -27.2681  -21.5871  -23.6366 C   0  0  0  0  0  0
  -26.2558  -22.1373  -22.6197 C   0  0  0  0  0  0
  -26.5296  -21.8143  -21.1987 C   0  0  0  0  0  0
  -25.7159  -20.9471  -20.5075 C   0  0  0  0  0  0
  -26.1956  -20.7886  -18.8404 S   0  0  0  0  0  0
  -27.4982  -21.9239  -19.1511 C   0  0  0  0  0  0
  -28.3689  -22.3005  -18.1496 N   0  0  0  0  0  0
  -27.5535  -22.3597  -20.4118 N   0  0  0  0  0  0
  -25.2170  -22.8437  -22.8617 N   0  0  0  0  0  0
  -24.9225  -23.0503  -24.2263 O   0  0  0  0  0  0
  -23.6055  -23.6034  -24.3920 C   0  0  0  0  0  0
  -23.5965  -25.1185  -24.0560 C   0  0  0  0  0  0
  -24.3688  -25.8698  -24.6991 O   0  5  0  0  0  0
  -22.7742  -25.5452  -23.2121 O   0  0  0  0  0  0
  -23.2955  -23.4418  -25.8936 C   0  0  0  0  0  0
  -22.5315  -22.8244  -23.5851 C   0  0  0  0  0  0
  -27.2673  -21.9497  -24.8133 O   0  0  0  0  0  0
  -30.5495  -21.6157  -21.3039 H   0  0  0  0  0  0
  -31.5696  -22.6539  -22.2823 H   0  0  0  0  0  0
  -29.8224  -22.7856  -22.3997 H   0  0  0  0  0  0
  -31.5560  -20.3979  -23.3505 H   0  0  0  0  0  0
  -29.5565  -19.1128  -23.4550 H   0  0  0  0  0  0
  -28.0589  -20.4928  -22.1457 H   0  0  0  0  0  0
  -24.8606  -20.3972  -20.8735 H   0  0  0  0  0  0
  -29.3553  -22.3499  -18.4108 H   0  0  0  0  0  0
  -28.2624  -21.8089  -17.2733 H   0  0  0  0  0  0
  -22.2826  -23.7679  -26.1320 H   0  0  0  0  0  0
  -23.9713  -24.0213  -26.5173 H   0  0  0  0  0  0
  -23.3818  -22.3988  -26.1999 H   0  0  0  0  0  0
  -21.5246  -23.1490  -23.8490 H   0  0  0  0  0  0
  -22.5931  -21.7551  -23.7889 H   0  0  0  0  0  0
  -22.6363  -22.9603  -22.5081 H   0  0  0  0  0  0
  1  2  1  0  0  0
  1 29  1  0  0  0
  1 30  1  0  0  0
  1 31  1  0  0  0
  2  5  1  0  0  0
  2  3  1  0  0  0
  2 32  1  0  0  0
  3  4  1  0  0  0
  3 11  1  0  0  0
  3 33  1  0  0  0
  4  5  1  0  0  0
  4 10  2  0  0  0
  5  6  1  0  0  0
  6  7  2  0  0  0
  6  8  1  0  0  0
  6  9  2  0  0  0
 11 12  1  0  0  0
 11 34  1  0  0  0
 12 13  1  0  0  0
 12 28  2  0  0  0
 13 14  1  0  0  0
 13 20  2  3  0  0
 14 19  1  0  0  0
 14 15  2  0  0  0
 15 16  1  0  0  0
 15 35  1  0  0  0
 16 17  1  0  0  0
 17 18  1  0  0  0
 17 19  2  0  0  0
 18 36  1  0  0  0
 18 37  1  0  0  0
 20 21  1  0  0  0
 21 22  1  0  0  0
 22 23  1  0  0  0
 22 26  1  0  0  0
 22 27  1  0  0  0
 23 24  1  0  0  0
 23 25  2  0  0  0
 26 38  1  0  0  0
 26 39  1  0  0  0
 26 40  1  0  0  0
 27 41  1  0  0  0
 27 42  1  0  0  0
 27 43  1  0  0  0
M  CHG  2   8  -1  24  -1
M  END
> <s_m_entry_id>
27519

> <s_m_entry_name>
data_maestro.21

> <s_m_Source_Path>
C:\Users\olshana1\Git\GramNeg-Accumulation\Gram Negative Permeation - OmpF

> <s_m_Source_File>
data_maestro.csv

> <i_m_Source_File_Index>
21

> <s_m_job_name>
glide-dock_Nicaido_neutral

> <s_i_glide_gridfile>
3POX-grid

> <i_i_glide_lignum>
27

> <i_i_glide_rotatable_bonds>
8

> <r_i_docking_score>
-4.76466986577111

> <r_i_glide_ligand_efficiency>
-0.170166780920397

> <r_i_glide_ligand_efficiency_sa>
-0.516726569748512

> <r_i_glide_ligand_efficiency_ln>
-1.09982570180613

> <r_i_glide_gscore>
-4.76466986577111

> <r_i_glide_lipo>
0

> <r_i_glide_hbond>
-0.796212038880636

> <r_i_glide_metal>
0

> <r_i_glide_rewards>
-0.446847373101018

> <r_i_glide_evdw>
-20.9069843292236

> <r_i_glide_ecoul>
-15.4360599517822

> <r_i_glide_erotb>
0.635830109179744

> <r_i_glide_esite>
-0.796682353740682

> <r_i_glide_emodel>
-62.4452980062539

> <r_i_glide_energy>
-36.3430442810059

> <r_i_glide_einternal>
6.06424999237061

> <i_i_glide_confnum>
5

> <i_i_glide_posenum>
243

> <r_i_glide_eff_state_penalty>
0

> <r_glide_res:A132_vdw>
-1.90804610300422

> <r_glide_res:A132_coul>
-56.474098696873

> <r_glide_res:A132_hbond>
0

> <r_glide_res:A132_dist>
3.40755124624291

> <r_glide_res:A132_Eint>
-58.3821447998772

> <r_glide_res:A117_vdw>
-1.94070366271342

> <r_glide_res:A117_coul>
36.8445031346335

> <r_glide_res:A117_hbond>
0

> <r_glide_res:A117_dist>
3.41085160294201

> <r_glide_res:A117_Eint>
34.9037994719201

> <r_glide_res:A113_vdw>
-1.49793303957847

> <r_glide_res:A113_coul>
27.2851599962367

> <r_glide_res:A113_hbond>
-0.16

> <r_glide_res:A113_dist>
1.94161656312616

> <r_glide_res:A113_Eint>
25.6272269566582

> <r_glide_res:A82_vdw>
-1.74119796412144

> <r_glide_res:A82_coul>
-79.3628404347481

> <r_glide_res:A82_hbond>
-0.190309205118676

> <r_glide_res:A82_dist>
1.85017088969094

> <r_glide_res:A82_Eint>
-81.2943476039882

> <r_glide_res:A42_vdw>
-1.96784337789535

> <r_glide_res:A42_coul>
-78.3178116391069

> <r_glide_res:A42_hbond>
-0.16

> <r_glide_res:A42_dist>
1.68108188190947

> <r_glide_res:A42_Eint>
-80.4456550170023

> <r_glide_res:A16_vdw>
-0.525041651809722

> <r_glide_res:A16_coul>
-68.8887832147302

> <r_glide_res:A16_hbond>
-0.0882669979894242

> <r_glide_res:A16_dist>
2.23607498521771

> <r_glide_res:A16_Eint>
-69.5020918645293

> <s_m_source_file>
ligprep_Nicaido_neutral.maegz

> <i_m_source_file_index>
21

> <i_lp_mmshare_version>
58128

> <i_f3d_flags>
0

> <s_lp_Force_Field>
S-OPLS

> <r_lp_Energy>
50.237147

> <b_lp_Chiralities_Consistent>
1

> <s_lp_Variant>
Aztreonam-2

> <s_epik_input>
Tz1TKD1PKShbT0hdKU4xQyg9TylbQ0BASF0oW0NAQEhdMVtDSDNdKVtOSF1DKD1PKS9DKGMyW2NIXXNjKG4yKVtOSDJdKT1OL09DKFtDSDNdKShbQ0gzXSlDKD1PKVtPSF0=

> <s_epik_cmdline>
J2VwaWtfcHl0aG9uJywgJy1waHQnLCAnMC4wJywgJy1waCcsICc3LjQnLCAnLW50JywgJy1tYScsICc1MDAnLCAnLWltYWUnLCAnPGluZmlsZS5tYWU+JywgJy1vbWFlJywgJzxvdXRmaWxlLm1hZT4n

> <r_lp_tautomer_probability>
1

> <r_epik_Ionization_Penalty>
  0.0004

> <r_epik_Ionization_Penalty_Charging>
  0.0000

> <r_epik_Ionization_Penalty_Neutral>
  0.0004

> <r_epik_State_Penalty>
  0.0000

> <r_epik_Charging_Adjusted_Penalty>
4.45674509427693e-05

> <i_epik_Tot_Q>
-2

> <i_epik_Tot_abs_Q>
2

> <s_epik_Chemistry_Notes>
This compound has an imine and may undergo hydrolysis.

> <s_m_subgroup_title>
glide-dock_Nicaido_neutral_pv1

> <s_m_subgroupid>
glide-dock_Nicaido_neutral_pv1

> <b_m_subgroup_collapsed>
0

$$$$
Ceftizoxime
                    3D
 Schrodinger Suite 2022-2.
 37 39  0  0  1  0            999 V2000
  -24.6823  -22.4008  -16.0138 C   0  0  0  0  0  0
  -25.0723  -21.9673  -17.3052 O   0  0  0  0  0  0
  -26.1612  -22.7560  -17.7050 N   0  0  0  0  0  0
  -26.7079  -22.3452  -18.7763 C   0  0  0  0  0  0
  -26.2099  -21.2006  -19.5833 C   0  0  0  0  0  0
  -26.7595  -19.9496  -19.4605 C   0  0  0  0  0  0
  -25.9581  -18.7739  -20.4594 S   0  0  0  0  0  0
  -24.9451  -20.0642  -21.0834 C   0  0  0  0  0  0
  -23.9929  -19.8266  -22.0565 N   0  0  0  0  0  0
  -25.1864  -21.2590  -20.5398 N   0  0  0  0  0  0
  -27.9114  -23.0617  -19.3487 C   0  0  0  0  0  0
  -28.7691  -22.2597  -20.0027 N   0  0  0  0  0  0
  -29.9903  -22.7038  -20.6696 C   0  0  1  0  0  0
  -30.6780  -21.5688  -21.4517 C   0  0  1  0  0  0
  -30.3353  -22.2723  -22.6765 N   0  0  0  0  0  0
  -29.6943  -23.3334  -22.0436 C   0  0  0  0  0  0
  -29.1434  -24.3458  -22.4260 O   0  0  0  0  0  0
  -30.6725  -21.7367  -23.9422 C   0  0  0  0  0  0
  -29.8669  -22.1842  -25.2135 C   0  0  0  0  0  0
  -30.3679  -21.9486  -26.3398 O   0  5  0  0  0  0
  -28.7677  -22.7498  -25.0280 O   0  0  0  0  0  0
  -31.6526  -20.8122  -24.0704 C   0  0  0  0  0  0
  -32.5320  -20.2763  -22.9503 C   0  0  0  0  0  0
  -32.4822  -21.3172  -21.4699 S   0  0  0  0  0  0
  -28.0610  -24.2816  -19.2314 O   0  0  0  0  0  0
  -23.8785  -21.7681  -15.6378 H   0  0  0  0  0  0
  -25.5083  -22.3496  -15.3028 H   0  0  0  0  0  0
  -24.3194  -23.4281  -16.0420 H   0  0  0  0  0  0
  -27.5645  -19.6342  -18.8136 H   0  0  0  0  0  0
  -23.5724  -20.6055  -22.5391 H   0  0  0  0  0  0
  -24.0237  -18.9582  -22.5753 H   0  0  0  0  0  0
  -28.6046  -21.2623  -19.9926 H   0  0  0  0  0  0
  -30.6778  -23.2639  -20.0342 H   0  0  0  0  0  0
  -30.1543  -20.6127  -21.3803 H   0  0  0  0  0  0
  -31.8581  -20.3888  -25.0426 H   0  0  0  0  0  0
  -32.2077  -19.2666  -22.6953 H   0  0  0  0  0  0
  -33.5635  -20.2120  -23.2942 H   0  0  0  0  0  0
  1  2  1  0  0  0
  1 26  1  0  0  0
  1 27  1  0  0  0
  1 28  1  0  0  0
  2  3  1  0  0  0
  3  4  2  3  0  0
  4  5  1  0  0  0
  4 11  1  0  0  0
  5 10  1  0  0  0
  5  6  2  0  0  0
  6  7  1  0  0  0
  6 29  1  0  0  0
  7  8  1  0  0  0
  8  9  1  0  0  0
  8 10  2  0  0  0
  9 30  1  0  0  0
  9 31  1  0  0  0
 11 12  1  0  0  0
 11 25  2  0  0  0
 12 13  1  0  0  0
 12 32  1  0  0  0
 13 16  1  0  0  0
 13 14  1  0  0  0
 13 33  1  0  0  0
 14 24  1  0  0  0
 14 15  1  0  0  0
 14 34  1  0  0  0
 15 16  1  0  0  0
 15 18  1  0  0  0
 16 17  2  0  0  0
 18 19  1  0  0  0
 18 22  2  0  0  0
 19 20  1  0  0  0
 19 21  2  0  0  0
 22 23  1  0  0  0
 22 35  1  0  0  0
 23 24  1  0  0  0
 23 36  1  0  0  0
 23 37  1  0  0  0
M  CHG  1  20  -1
M  END
> <s_m_entry_id>
27520

> <s_m_entry_name>
data_maestro.5

> <s_m_Source_Path>
C:\Users\olshana1\Git\GramNeg-Accumulation\Gram Negative Permeation - OmpF

> <s_m_Source_File>
data_maestro.csv

> <i_m_Source_File_Index>
5

> <s_m_job_name>
glide-dock_Nicaido_neutral

> <s_i_glide_gridfile>
3POX-grid

> <i_i_glide_lignum>
5

> <i_i_glide_rotatable_bonds>
6

> <r_i_docking_score>
-4.76213181232348

> <r_i_glide_ligand_efficiency>
-0.190485272492939

> <r_i_glide_ligand_efficiency_sa>
-0.556982315040046

> <r_i_glide_ligand_efficiency_ln>
-1.12876794909512

> <r_i_glide_gscore>
-4.76213181232348

> <r_i_glide_lipo>
0

> <r_i_glide_hbond>
-0.893171950580003

> <r_i_glide_metal>
0

> <r_i_glide_rewards>
-0.800436259296199

> <r_i_glide_evdw>
-22.8512306213379

> <r_i_glide_ecoul>
-12.9356460571289

> <r_i_glide_erotb>
0.664075194683877

> <r_i_glide_esite>
-0.649690357494925

> <r_i_glide_emodel>
-56.9454356561476

> <r_i_glide_energy>
-35.7868766784668

> <r_i_glide_einternal>
3.61282324790955

> <i_i_glide_confnum>
83

> <i_i_glide_posenum>
114

> <r_i_glide_eff_state_penalty>
0

> <r_glide_res:A132_vdw>
-1.03855843328316

> <r_glide_res:A132_coul>
-33.8943752113265

> <r_glide_res:A132_hbond>
-0.16

> <r_glide_res:A132_dist>
1.90782023328848

> <r_glide_res:A132_Eint>
-35.0929336446097

> <r_glide_res:A117_vdw>
-1.53703358029078

> <r_glide_res:A117_coul>
20.1090608237563

> <r_glide_res:A117_hbond>
0

> <r_glide_res:A117_dist>
3.19711784761349

> <r_glide_res:A117_Eint>
18.5720272434655

> <r_glide_res:A113_vdw>
-3.8362939283661

> <r_glide_res:A113_coul>
12.5865669799821

> <r_glide_res:A113_hbond>
0

> <r_glide_res:A113_dist>
2.34198188234036

> <r_glide_res:A113_Eint>
8.75027305161597

> <r_glide_res:A82_vdw>
-0.336183176707343

> <r_glide_res:A82_coul>
-43.1452979944046

> <r_glide_res:A82_hbond>
-0.165752027547049

> <r_glide_res:A82_dist>
1.76312861512552

> <r_glide_res:A82_Eint>
-43.647233198659

> <r_glide_res:A42_vdw>
0.962701938823409

> <r_glide_res:A42_coul>
-50.540495748187

> <r_glide_res:A42_hbond>
-0.385202772562864

> <r_glide_res:A42_dist>
1.82902895211492

> <r_glide_res:A42_Eint>
-49.9629965819265

> <r_glide_res:A16_vdw>
-0.012950162660409

> <r_glide_res:A16_coul>
-44.9470703268188

> <r_glide_res:A16_hbond>
-0.18221715047009

> <r_glide_res:A16_dist>
1.94780503027686

> <r_glide_res:A16_Eint>
-45.1422376399493

> <s_m_source_file>
ligprep_Nicaido_neutral.maegz

> <i_m_source_file_index>
5

> <i_lp_mmshare_version>
58128

> <i_f3d_flags>
0

> <s_lp_Force_Field>
S-OPLS

> <r_lp_Energy>
52.616387

> <b_lp_Chiralities_Consistent>
1

> <s_lp_Variant>
Ceftizoxime-1

> <s_epik_input>
W05IMl1jKG4xKXNbY0hdYzEvQyg9TlxPW0NIM10pQyg9TylbTkhdW0NAQEhdMkMoPU8pTihbQ0BIXTIzKUMoQyg9TylbT0hdKT1bQ0hdW0NIMl1TMw==

> <s_epik_cmdline>
J2VwaWtfcHl0aG9uJywgJy1waHQnLCAnMC4wJywgJy1waCcsICc3LjQnLCAnLW50JywgJy1tYScsICc1MDAnLCAnLWltYWUnLCAnPGluZmlsZS5tYWU+JywgJy1vbWFlJywgJzxvdXRmaWxlLm1hZT4n

> <r_lp_tautomer_probability>
1

> <r_epik_Ionization_Penalty>
  0.0005

> <r_epik_Ionization_Penalty_Charging>
  0.0000

> <r_epik_Ionization_Penalty_Neutral>
  0.0005

> <r_epik_State_Penalty>
  0.0000

> <r_epik_Charging_Adjusted_Penalty>
4.86746471452517e-05

> <i_epik_Tot_Q>
-1

> <i_epik_Tot_abs_Q>
1

> <s_epik_Chemistry_Notes>
This compound has an imine and may undergo hydrolysis. This compound contains an acetal/aminal-like group ( X-CH(R)-Y where X, Y are N, S, or O) that may be acid/base labile, releasing an aldehyde.

> <s_m_subgroup_title>
glide-dock_Nicaido_neutral_pv1

> <s_m_subgroupid>
glide-dock_Nicaido_neutral_pv1

> <b_m_subgroup_collapsed>
0

$$$$
Ceftriaxone
                    3D
 Schrodinger Suite 2022-2.
 52 55  0  0  1  0            999 V2000
  -22.9506  -22.7709  -24.5920 C   0  0  0  0  0  0
  -22.9289  -23.4418  -23.2981 N   0  0  0  0  0  0
  -23.4213  -22.7943  -22.1283 C   0  0  0  0  0  0
  -24.4027  -21.2776  -22.4868 S   0  0  0  0  0  0
  -25.3182  -20.9798  -20.9295 C   0  0  0  0  0  0
  -26.8327  -21.0124  -21.1279 C   0  0  0  0  0  0
  -27.5311  -22.1657  -21.3079 C   0  0  0  0  0  0
  -28.9176  -22.2025  -21.5257 N   0  0  0  0  0  0
  -29.7944  -21.1315  -21.1063 C   0  0  2  0  0  0
  -30.9409  -21.9065  -21.7918 C   0  0  2  0  0  0
  -29.9407  -23.0914  -21.8174 C   0  0  0  0  0  0
  -29.9693  -24.2901  -22.0130 O   0  0  0  0  0  0
  -31.2319  -21.3417  -23.1118 N   0  0  0  0  0  0
  -31.7812  -21.9900  -24.1529 C   0  0  0  0  0  0
  -31.8059  -21.1763  -25.4510 C   0  0  0  0  0  0
  -30.7281  -20.1569  -25.5996 C   0  0  0  0  0  0
  -31.0000  -18.9216  -26.1432 C   0  0  0  0  0  0
  -29.5688  -17.9490  -26.3199 S   0  0  0  0  0  0
  -28.6384  -19.2553  -25.6133 C   0  0  0  0  0  0
  -27.2727  -19.1496  -25.4367 N   0  0  0  0  0  0
  -29.3641  -20.3365  -25.3207 N   0  0  0  0  0  0
  -32.6397  -21.3028  -26.4133 N   0  0  0  0  0  0
  -33.6354  -22.2663  -26.2061 O   0  0  0  0  0  0
  -34.5432  -22.1982  -27.2909 C   0  0  0  0  0  0
  -32.1993  -23.1464  -24.0839 O   0  0  0  0  0  0
  -29.1552  -19.5561  -21.7704 S   0  0  0  0  0  0
  -27.4831  -19.6310  -21.0737 C   0  0  0  0  0  0
  -26.8388  -23.5495  -21.3780 C   0  0  0  0  0  0
  -27.0300  -24.2220  -22.4132 O   0  5  0  0  0  0
  -26.2489  -23.9495  -20.3541 O   0  0  0  0  0  0
  -23.2233  -23.2229  -20.9148 N   0  0  0  0  0  0
  -22.5531  -24.4232  -20.7139 C   0  0  0  0  0  0
  -22.1411  -25.2504  -21.9684 C   0  0  0  0  0  0
  -21.6320  -26.3477  -21.7461 O   0  0  0  0  0  0
  -22.3690  -24.7495  -23.2135 N   0  5  0  0  0  0
  -22.2898  -24.8805  -19.6005 O   0  0  0  0  0  0
  -22.4771  -21.7904  -24.5323 H   0  0  0  0  0  0
  -22.4082  -23.3514  -25.3389 H   0  0  0  0  0  0
  -23.9740  -22.6477  -24.9463 H   0  0  0  0  0  0
  -25.0204  -20.0012  -20.5512 H   0  0  0  0  0  0
  -25.0434  -21.6742  -20.1389 H   0  0  0  0  0  0
  -29.8325  -21.1497  -20.0170 H   0  0  0  0  0  0
  -31.8117  -22.0268  -21.1462 H   0  0  0  0  0  0
  -30.8806  -20.4044  -23.2569 H   0  0  0  0  0  0
  -31.9538  -18.5202  -26.4542 H   0  0  0  0  0  0
  -26.8432  -19.6794  -24.6922 H   0  0  0  0  0  0
  -26.8617  -18.2230  -25.5589 H   0  0  0  0  0  0
  -35.3339  -22.9345  -27.1488 H   0  0  0  0  0  0
  -35.0110  -21.2146  -27.3549 H   0  0  0  0  0  0
  -34.0502  -22.4169  -28.2390 H   0  0  0  0  0  0
  -27.5228  -19.3036  -20.0338 H   0  0  0  0  0  0
  -26.8665  -18.9118  -21.6133 H   0  0  0  0  0  0
  1  2  1  0  0  0
  1 37  1  0  0  0
  1 38  1  0  0  0
  1 39  1  0  0  0
  2 35  1  0  0  0
  2  3  1  0  0  0
  3  4  1  0  0  0
  3 31  2  0  0  0
  4  5  1  0  0  0
  5  6  1  0  0  0
  5 40  1  0  0  0
  5 41  1  0  0  0
  6 27  1  0  0  0
  6  7  2  0  0  0
  7  8  1  0  0  0
  7 28  1  0  0  0
  8 11  1  0  0  0
  8  9  1  0  0  0
  9 10  1  0  0  0
  9 26  1  0  0  0
  9 42  1  0  0  0
 10 11  1  0  0  0
 10 13  1  0  0  0
 10 43  1  0  0  0
 11 12  2  0  0  0
 13 14  1  0  0  0
 13 44  1  0  0  0
 14 15  1  0  0  0
 14 25  2  0  0  0
 15 16  1  0  0  0
 15 22  2  3  0  0
 16 21  1  0  0  0
 16 17  2  0  0  0
 17 18  1  0  0  0
 17 45  1  0  0  0
 18 19  1  0  0  0
 19 20  1  0  0  0
 19 21  2  0  0  0
 20 46  1  0  0  0
 20 47  1  0  0  0
 22 23  1  0  0  0
 23 24  1  0  0  0
 24 48  1  0  0  0
 24 49  1  0  0  0
 24 50  1  0  0  0
 26 27  1  0  0  0
 27 51  1  0  0  0
 27 52  1  0  0  0
 28 29  1  0  0  0
 28 30  2  0  0  0
 31 32  1  0  0  0
 32 33  1  0  0  0
 32 36  2  0  0  0
 33 34  2  0  0  0
 33 35  1  0  0  0
M  CHG  2  29  -1  35  -1
M  END
> <s_m_entry_id>
27521

> <s_m_entry_name>
data_maestro.22

> <s_m_Source_Path>
C:\Users\olshana1\Git\GramNeg-Accumulation\Gram Negative Permeation - OmpF

> <s_m_Source_File>
data_maestro.csv

> <i_m_Source_File_Index>
22

> <s_m_job_name>
glide-dock_Nicaido_neutral

> <s_i_glide_gridfile>
3POX-grid

> <i_i_glide_lignum>
29

> <i_i_glide_rotatable_bonds>
9

> <r_i_docking_score>
-4.76111962494046

> <r_i_glide_ligand_efficiency>
-0.132253322915013

> <r_i_glide_ligand_efficiency_sa>
-0.436690850168311

> <r_i_glide_ligand_efficiency_ln>
-1.03874767157484

> <r_i_glide_gscore>
-4.76111962494046

> <r_i_glide_lipo>
0

> <r_i_glide_hbond>
-0.921988865453165

> <r_i_glide_metal>
0

> <r_i_glide_rewards>
0.000579840784505987

> <r_i_glide_evdw>
-29.3480892181396

> <r_i_glide_ecoul>
-14.4146089553833

> <r_i_glide_erotb>
0.472124986767549

> <r_i_glide_esite>
-0.68223978282487

> <r_i_glide_emodel>
-73.5295013577257

> <r_i_glide_energy>
-43.7626981735229

> <r_i_glide_einternal>
8.31245231628418

> <i_i_glide_confnum>
108

> <i_i_glide_posenum>
31

> <r_i_glide_eff_state_penalty>
0

> <r_glide_res:A132_vdw>
-1.71745023221897

> <r_glide_res:A132_coul>
-80.29749955392

> <r_glide_res:A132_hbond>
-0.22157110334697

> <r_glide_res:A132_dist>
1.88197249172056

> <r_glide_res:A132_Eint>
-82.2365208894859

> <r_glide_res:A117_vdw>
-4.79251805928051

> <r_glide_res:A117_coul>
31.3979638064438

> <r_glide_res:A117_hbond>
-0.145899388904639

> <r_glide_res:A117_dist>
2.1352515277384

> <r_glide_res:A117_Eint>
26.4595463582586

> <r_glide_res:A113_vdw>
-1.95780556005377

> <r_glide_res:A113_coul>
32.1560319937254

> <r_glide_res:A113_hbond>
0

> <r_glide_res:A113_dist>
2.1394988796791

> <r_glide_res:A113_Eint>
30.1982264336717

> <r_glide_res:A82_vdw>
1.11529347818191

> <r_glide_res:A82_coul>
-81.4406881767948

> <r_glide_res:A82_hbond>
-0.354518373201555

> <r_glide_res:A82_dist>
1.62024018166584

> <r_glide_res:A82_Eint>
-80.6799130718145

> <r_glide_res:A42_vdw>
-1.98472128793625

> <r_glide_res:A42_coul>
-55.1561217642289

> <r_glide_res:A42_hbond>
0

> <r_glide_res:A42_dist>
2.81535752049832

> <r_glide_res:A42_Eint>
-57.1408430521651

> <r_glide_res:A16_vdw>
-1.9649798830371

> <r_glide_res:A16_coul>
-35.8813707074158

> <r_glide_res:A16_hbond>
0

> <r_glide_res:A16_dist>
2.58162728216693

> <r_glide_res:A16_Eint>
-37.8463505904529

> <s_m_source_file>
ligprep_Nicaido_neutral.maegz

> <i_m_source_file_index>
22

> <i_lp_mmshare_version>
58128

> <i_f3d_flags>
0

> <s_lp_Force_Field>
S-OPLS

> <r_lp_Energy>
111.196812

> <b_lp_Chiralities_Consistent>
1

> <s_lp_Variant>
Ceftriaxone-2

> <s_epik_input>
W09IXWMobjEpYyg9TyluYyhuMVtDSDNdKVNbQ0gyXUMoPUMyQyg9TylbT0hdKVtDSDJdU1tDQEhdKE4yMylbQ0BIXShDMz1PKVtOSF1DKD1PKS9DKD1OL09bQ0gzXSljNFtjSF1zYyhuNClbTkgyXQ==

> <s_epik_cmdline>
J2VwaWtfcHl0aG9uJywgJy1waHQnLCAnMC4wJywgJy1waCcsICc3LjQnLCAnLW50JywgJy1tYScsICc1MDAnLCAnLWltYWUnLCAnPGluZmlsZS5tYWU+JywgJy1vbWFlJywgJzxvdXRmaWxlLm1hZT4n

> <r_lp_tautomer_probability>
1

> <r_epik_Ionization_Penalty>
  0.0014

> <r_epik_Ionization_Penalty_Charging>
  0.0010

> <r_epik_Ionization_Penalty_Neutral>
  0.0004

> <r_epik_State_Penalty>
  0.0000

> <r_epik_Charging_Adjusted_Penalty>
0.000994184415634904

> <i_epik_Tot_Q>
-2

> <i_epik_Tot_abs_Q>
2

> <s_epik_Chemistry_Notes>
This compound has an imine and may undergo hydrolysis. This compound contains an acetal/aminal-like group ( X-CH(R)-Y where X, Y are N, S, or O) that may be acid/base labile, releasing an aldehyde.

> <s_m_subgroup_title>
glide-dock_Nicaido_neutral_pv1

> <s_m_subgroupid>
glide-dock_Nicaido_neutral_pv1

> <b_m_subgroup_collapsed>
0

$$$$
Nocardicin B
                    3D
 Schrodinger Suite 2022-2.
 59 61  0  0  1  0            999 V2000
  -17.9222  -20.1193  -22.5733 O   0  0  0  0  0  0
  -18.7788  -20.8504  -22.1262 C   0  0  0  0  0  0
  -19.3929  -21.1435  -20.7485 C   0  0  2  0  0  0
  -20.2745  -22.1525  -21.4876 C   0  0  0  0  0  0
  -19.6094  -21.7550  -22.7383 N   0  0  0  0  0  0
  -19.7895  -22.0946  -24.1484 C   0  0  2  0  0  0
  -20.8084  -21.2107  -24.8122 C   0  0  0  0  0  0
  -20.8671  -21.1612  -26.2261 C   0  0  0  0  0  0
  -21.7927  -20.3467  -26.9017 C   0  0  0  0  0  0
  -22.6762  -19.5414  -26.1667 C   0  0  0  0  0  0
  -22.6349  -19.5511  -24.7649 C   0  0  0  0  0  0
  -21.7149  -20.3802  -24.1010 C   0  0  0  0  0  0
  -23.5689  -18.7496  -26.8134 O   0  0  0  0  0  0
  -20.2492  -23.5515  -24.3462 C   0  0  0  0  0  0
  -19.4063  -24.3496  -24.8134 O   0  5  0  0  0  0
  -21.4078  -23.9008  -24.0133 O   0  0  0  0  0  0
  -20.1643  -20.0192  -20.2266 N   0  0  0  0  0  0
  -19.6113  -18.9765  -19.5848 C   0  0  0  0  0  0
  -20.5582  -17.8215  -19.3019 C   0  0  0  0  0  0
  -21.9940  -18.0547  -19.6191 C   0  0  0  0  0  0
  -22.8683  -18.5233  -18.6159 C   0  0  0  0  0  0
  -24.2373  -18.7072  -18.8868 C   0  0  0  0  0  0
  -24.7550  -18.4247  -20.1737 C   0  0  0  0  0  0
  -23.8785  -17.9507  -21.1714 C   0  0  0  0  0  0
  -22.5074  -17.7738  -20.9036 C   0  0  0  0  0  0
  -26.0851  -18.5235  -20.5124 O   0  0  0  0  0  0
  -26.9175  -19.4781  -19.8653 C   0  0  0  0  0  0
  -26.8654  -20.8087  -20.6323 C   0  0  0  0  0  0
  -27.7387  -21.9137  -20.0010 C   0  0  2  0  0  0
  -27.5304  -23.2403  -20.7567 C   0  0  0  0  0  0
  -28.3276  -23.5562  -21.6711 O   0  5  0  0  0  0
  -26.5598  -23.9496  -20.4134 O   0  0  0  0  0  0
  -29.1689  -21.5496  -20.0134 N   0  3  0  0  0  0
  -20.1126  -16.7348  -18.8128 N   0  0  0  0  0  0
  -21.1687  -15.7790  -18.6405 O   0  0  0  0  0  0
  -18.4229  -18.9402  -19.2631 O   0  0  0  0  0  0
  -18.7214  -21.6111  -20.0271 H   0  0  0  0  0  0
  -20.0791  -23.1871  -21.2016 H   0  0  0  0  0  0
  -21.3443  -21.9401  -21.4573 H   0  0  0  0  0  0
  -18.8247  -21.9714  -24.6443 H   0  0  0  0  0  0
  -20.1915  -21.7712  -26.8086 H   0  0  0  0  0  0
  -21.8194  -20.3344  -27.9818 H   0  0  0  0  0  0
  -23.3082  -18.9254  -24.1962 H   0  0  0  0  0  0
  -21.7191  -20.3552  -23.0240 H   0  0  0  0  0  0
  -23.9922  -18.0980  -26.2435 H   0  0  0  0  0  0
  -21.1446  -19.9727  -20.4638 H   0  0  0  0  0  0
  -22.4959  -18.7239  -17.6209 H   0  0  0  0  0  0
  -24.8695  -19.0281  -18.0741 H   0  0  0  0  0  0
  -24.2671  -17.7099  -22.1512 H   0  0  0  0  0  0
  -21.8592  -17.3988  -21.6843 H   0  0  0  0  0  0
  -27.9311  -19.0771  -19.8929 H   0  0  0  0  0  0
  -26.6944  -19.6303  -18.8134 H   0  0  0  0  0  0
  -25.8280  -21.1454  -20.6689 H   0  0  0  0  0  0
  -27.1637  -20.6384  -21.6681 H   0  0  0  0  0  0
  -27.4459  -22.0541  -18.9589 H   0  0  0  0  0  0
  -29.7104  -22.2319  -19.4966 H   0  0  0  0  0  0
  -29.3402  -20.6500  -19.5770 H   0  0  0  0  0  0
  -21.9482  -16.2993  -18.7681 H   0  0  0  0  0  0
  -29.4946  -21.5316  -20.9680 H   0  0  0  0  0  0
  1  2  2  0  0  0
  2  5  1  0  0  0
  2  3  1  0  0  0
  3  4  1  0  0  0
  3 17  1  0  0  0
  3 37  1  0  0  0
  4  5  1  0  0  0
  4 38  1  0  0  0
  4 39  1  0  0  0
  5  6  1  0  0  0
  6  7  1  0  0  0
  6 14  1  0  0  0
  6 40  1  0  0  0
  7 12  1  0  0  0
  7  8  2  0  0  0
  8  9  1  0  0  0
  8 41  1  0  0  0
  9 10  2  0  0  0
  9 42  1  0  0  0
 10 11  1  0  0  0
 10 13  1  0  0  0
 11 12  2  0  0  0
 11 43  1  0  0  0
 12 44  1  0  0  0
 13 45  1  0  0  0
 14 15  1  0  0  0
 14 16  2  0  0  0
 17 18  1  0  0  0
 17 46  1  0  0  0
 18 19  1  0  0  0
 18 36  2  0  0  0
 19 20  1  0  0  0
 19 34  2  3  0  0
 20 25  1  0  0  0
 20 21  2  0  0  0
 21 22  1  0  0  0
 21 47  1  0  0  0
 22 23  2  0  0  0
 22 48  1  0  0  0
 23 24  1  0  0  0
 23 26  1  0  0  0
 24 25  2  0  0  0
 24 49  1  0  0  0
 25 50  1  0  0  0
 26 27  1  0  0  0
 27 28  1  0  0  0
 27 51  1  0  0  0
 27 52  1  0  0  0
 28 29  1  0  0  0
 28 53  1  0  0  0
 28 54  1  0  0  0
 29 30  1  0  0  0
 29 33  1  0  0  0
 29 55  1  0  0  0
 30 31  1  0  0  0
 30 32  2  0  0  0
 33 56  1  0  0  0
 33 57  1  0  0  0
 33 59  1  0  0  0
 34 35  1  0  0  0
 35 58  1  0  0  0
M  CHG  3  15  -1  31  -1  33   1
M  END
> <s_m_entry_id>
27522

> <s_m_entry_name>
data_maestro.29

> <s_m_Source_Path>
C:\Users\olshana1\Git\GramNeg-Accumulation\Gram Negative Permeation - OmpF

> <s_m_Source_File>
data_maestro.csv

> <i_m_Source_File_Index>
29

> <s_m_job_name>
glide-dock_Nicaido_neutral

> <s_i_glide_gridfile>
3POX-grid

> <i_i_glide_lignum>
36

> <i_i_glide_rotatable_bonds>
14

> <r_i_docking_score>
-4.75397019692648

> <r_i_glide_ligand_efficiency>
-0.132054727692402

> <r_i_glide_ligand_efficiency_sa>
-0.436035103192056

> <r_i_glide_ligand_efficiency_ln>
-1.03718785953741

> <r_i_glide_gscore>
-4.75397019692648

> <r_i_glide_lipo>
-0.486341633704922

> <r_i_glide_hbond>
-0.824480320920632

> <r_i_glide_metal>
0

> <r_i_glide_rewards>
0.0908298784817094

> <r_i_glide_evdw>
-27.8428783416748

> <r_i_glide_ecoul>
-18.4958438873291

> <r_i_glide_erotb>
0.900147327125679

> <r_i_glide_esite>
-0.267604947725211

> <r_i_glide_emodel>
-73.1853713352628

> <r_i_glide_energy>
-46.3387222290039

> <r_i_glide_einternal>
9.42599582672119

> <i_i_glide_confnum>
733

> <i_i_glide_posenum>
349

> <r_i_glide_eff_state_penalty>
0

> <r_glide_res:A132_vdw>
-0.0353306869763442

> <r_glide_res:A132_coul>
-40.7298822120493

> <r_glide_res:A132_hbond>
-0.251441927856563

> <r_glide_res:A132_dist>
1.93902432866052

> <r_glide_res:A132_Eint>
-41.0166548268822

> <r_glide_res:A117_vdw>
-1.09941920982783

> <r_glide_res:A117_coul>
6.18247227105735

> <r_glide_res:A117_hbond>
-0.16

> <r_glide_res:A117_dist>
1.68135773199051

> <r_glide_res:A117_Eint>
4.92305306122952

> <r_glide_res:A113_vdw>
2.23715931714267

> <r_glide_res:A113_coul>
-23.0434276732024

> <r_glide_res:A113_hbond>
-0.257355203897967

> <r_glide_res:A113_dist>
1.95812133900765

> <r_glide_res:A113_Eint>
-21.0636235599577

> <r_glide_res:A82_vdw>
-1.01564800524611

> <r_glide_res:A82_coul>
-33.8442434686306

> <r_glide_res:A82_hbond>
0

> <r_glide_res:A82_dist>
2.84604854752162

> <r_glide_res:A82_Eint>
-34.8598914738767

> <r_glide_res:A42_vdw>
-0.459252652294212

> <r_glide_res:A42_coul>
-26.7408734799501

> <r_glide_res:A42_hbond>
0

> <r_glide_res:A42_dist>
4.7509544836522

> <r_glide_res:A42_Eint>
-27.2001261322443

> <r_glide_res:A16_vdw>
-0.0714544208663932

> <r_glide_res:A16_coul>
-13.9005340830199

> <r_glide_res:A16_hbond>
0

> <r_glide_res:A16_dist>
7.15413118488979

> <r_glide_res:A16_Eint>
-13.9719885038863

> <s_m_source_file>
ligprep_Nicaido_neutral.maegz

> <i_m_source_file_index>
29

> <i_lp_mmshare_version>
58128

> <i_f3d_flags>
0

> <s_lp_Force_Field>
S-OPLS

> <r_lp_Energy>
60.848016

> <b_lp_Chiralities_Consistent>
1

> <s_lp_Variant>
Nocardicin B-1

> <s_epik_input>
W2NIXTFbY0hdYyhbT0hdKVtjSF1bY0hdYzFbQ0BIXShDKD1PKVtPSF0pTjJbQ0gyXVtDQEBIXShDMj1PKVtOSF1DKD1PKS9DKD1OL1tPSF0pYzNbY0hdW2NIXWMoW2NIXVtjSF0zKU9bQ0gyXVtDSDJdW0NAQEhdKFtOSDJdKUMoPU8pW09IXQ==

> <s_epik_cmdline>
J2VwaWtfcHl0aG9uJywgJy1waHQnLCAnMC4wJywgJy1waCcsICc3LjQnLCAnLW50JywgJy1tYScsICc1MDAnLCAnLWltYWUnLCAnPGluZmlsZS5tYWU+JywgJy1vbWFlJywgJzxvdXRmaWxlLm1hZT4n

> <r_lp_tautomer_probability>
1

> <r_epik_Ionization_Penalty>
  0.0116

> <r_epik_Ionization_Penalty_Charging>
  0.0086

> <r_epik_Ionization_Penalty_Neutral>
  0.0030

> <r_epik_State_Penalty>
  0.0000

> <r_epik_Charging_Adjusted_Penalty>
0.0085560600321308

> <i_epik_Tot_Q>
-1

> <i_epik_Tot_abs_Q>
3

> <s_epik_Chemistry_Notes>
This compound has an imine and may undergo hydrolysis.

> <s_m_subgroup_title>
glide-dock_Nicaido_neutral_pv1

> <s_m_subgroupid>
glide-dock_Nicaido_neutral_pv1

> <b_m_subgroup_collapsed>
0

$$$$
Cefotaxime
                    3D
 Schrodinger Suite 2022-2.
 46 48  0  0  1  0            999 V2000
  -34.8034  -22.2439  -19.4666 C   0  0  0  0  0  0
  -34.4720  -22.4305  -20.9383 C   0  0  0  0  0  0
  -33.2969  -21.8794  -21.2993 O   0  0  0  0  0  0
  -32.8809  -22.0185  -22.6491 C   0  0  0  0  0  0
  -31.6828  -21.1461  -23.0186 C   0  0  0  0  0  0
  -30.6838  -21.5883  -23.8262 C   0  0  0  0  0  0
  -29.6482  -20.7499  -24.2653 N   0  0  0  0  0  0
  -29.2278  -19.5598  -23.5537 C   0  0  1  0  0  0
  -28.2020  -19.3262  -24.6897 C   0  0  2  0  0  0
  -28.6217  -20.7385  -25.1809 C   0  0  0  0  0  0
  -28.2774  -21.5495  -26.0131 O   0  0  0  0  0  0
  -26.8459  -19.1949  -24.1443 N   0  0  0  0  0  0
  -25.7136  -19.8331  -24.5136 C   0  0  0  0  0  0
  -24.5181  -19.5497  -23.5988 C   0  0  0  0  0  0
  -24.8652  -19.2671  -22.1764 C   0  0  0  0  0  0
  -24.1938  -18.3081  -21.4511 C   0  0  0  0  0  0
  -24.7612  -18.2091  -19.8037 S   0  0  0  0  0  0
  -25.9135  -19.4805  -20.1671 C   0  0  0  0  0  0
  -26.8035  -19.9496  -19.2217 N   0  0  0  0  0  0
  -25.8300  -19.9443  -21.4127 N   0  0  0  0  0  0
  -23.2863  -19.5485  -23.9450 N   0  0  0  0  0  0
  -23.0612  -19.8083  -25.3059 O   0  0  0  0  0  0
  -21.7373  -19.4144  -25.6126 C   0  0  0  0  0  0
  -25.6345  -20.6058  -25.4722 O   0  0  0  0  0  0
  -30.6974  -18.5172  -23.3292 S   0  0  0  0  0  0
  -31.7357  -19.7259  -22.4489 C   0  0  0  0  0  0
  -30.6454  -23.0409  -24.4074 C   0  0  0  0  0  0
  -30.3759  -23.9485  -23.5872 O   0  5  0  0  0  0
  -30.7607  -23.1501  -25.6497 O   0  0  0  0  0  0
  -35.2392  -23.0413  -21.6847 O   0  0  0  0  0  0
  -33.9190  -21.9481  -18.9042 H   0  0  0  0  0  0
  -35.5718  -21.4811  -19.3440 H   0  0  0  0  0  0
  -35.1744  -23.1772  -19.0454 H   0  0  0  0  0  0
  -33.7016  -21.7186  -23.3029 H   0  0  0  0  0  0
  -32.6934  -23.0736  -22.8446 H   0  0  0  0  0  0
  -28.7770  -19.8205  -22.5927 H   0  0  0  0  0  0
  -28.4867  -18.5060  -25.3501 H   0  0  0  0  0  0
  -26.7694  -18.5322  -23.3792 H   0  0  0  0  0  0
  -23.4043  -17.6527  -21.7916 H   0  0  0  0  0  0
  -27.6092  -20.4535  -19.5638 H   0  0  0  0  0  0
  -27.0432  -19.3006  -18.4716 H   0  0  0  0  0  0
  -21.5426  -19.5955  -26.6696 H   0  0  0  0  0  0
  -21.5882  -18.3499  -25.4243 H   0  0  0  0  0  0
  -21.0070  -19.9802  -25.0319 H   0  0  0  0  0  0
  -32.7620  -19.3591  -22.4682 H   0  0  0  0  0  0
  -31.4306  -19.7614  -21.4021 H   0  0  0  0  0  0
  1  2  1  0  0  0
  1 31  1  0  0  0
  1 32  1  0  0  0
  1 33  1  0  0  0
  2  3  1  0  0  0
  2 30  2  0  0  0
  3  4  1  0  0  0
  4  5  1  0  0  0
  4 34  1  0  0  0
  4 35  1  0  0  0
  5 26  1  0  0  0
  5  6  2  0  0  0
  6  7  1  0  0  0
  6 27  1  0  0  0
  7 10  1  0  0  0
  7  8  1  0  0  0
  8  9  1  0  0  0
  8 25  1  0  0  0
  8 36  1  0  0  0
  9 10  1  0  0  0
  9 12  1  0  0  0
  9 37  1  0  0  0
 10 11  2  0  0  0
 12 13  1  0  0  0
 12 38  1  0  0  0
 13 14  1  0  0  0
 13 24  2  0  0  0
 14 15  1  0  0  0
 14 21  2  3  0  0
 15 20  1  0  0  0
 15 16  2  0  0  0
 16 17  1  0  0  0
 16 39  1  0  0  0
 17 18  1  0  0  0
 18 19  1  0  0  0
 18 20  2  0  0  0
 19 40  1  0  0  0
 19 41  1  0  0  0
 21 22  1  0  0  0
 22 23  1  0  0  0
 23 42  1  0  0  0
 23 43  1  0  0  0
 23 44  1  0  0  0
 25 26  1  0  0  0
 26 45  1  0  0  0
 26 46  1  0  0  0
 27 28  1  0  0  0
 27 29  2  0  0  0
M  CHG  1  28  -1
M  END
> <s_m_entry_id>
27523

> <s_m_entry_name>
data_maestro.6

> <s_m_Source_Path>
C:\Users\olshana1\Git\GramNeg-Accumulation\Gram Negative Permeation - OmpF

> <s_m_Source_File>
data_maestro.csv

> <i_m_Source_File_Index>
6

> <s_m_job_name>
glide-dock_Nicaido_neutral

> <s_i_glide_gridfile>
3POX-grid

> <i_i_glide_lignum>
8

> <i_i_glide_rotatable_bonds>
9

> <r_i_docking_score>
-4.75326227666835

> <r_i_glide_ligand_efficiency>
-0.158442075888945

> <r_i_glide_ligand_efficiency_sa>
-0.492316367954783

> <r_i_glide_ligand_efficiency_ln>
-1.07999298019968

> <r_i_glide_gscore>
-4.75326227666835

> <r_i_glide_lipo>
-0.0136761390911299

> <r_i_glide_hbond>
-1.04290559571964

> <r_i_glide_metal>
0

> <r_i_glide_rewards>
-0.29360286172264

> <r_i_glide_evdw>
-31.8158092498779

> <r_i_glide_ecoul>
-12.0302610397339

> <r_i_glide_erotb>
0.680611118548691

> <r_i_glide_esite>
-0.688359180229658

> <r_i_glide_emodel>
-66.0424937916099

> <r_i_glide_energy>
-43.8460702896118

> <r_i_glide_einternal>
4.98069095611572

> <i_i_glide_confnum>
34

> <i_i_glide_posenum>
339

> <r_i_glide_eff_state_penalty>
0

> <r_glide_res:A132_vdw>
-0.497857429871199

> <r_glide_res:A132_coul>
-27.1630541044316

> <r_glide_res:A132_hbond>
0

> <r_glide_res:A132_dist>
4.14790644874588

> <r_glide_res:A132_Eint>
-27.6609115343028

> <r_glide_res:A117_vdw>
-7.6597864234105

> <r_glide_res:A117_coul>
14.4123471786095

> <r_glide_res:A117_hbond>
-0.301091171855026

> <r_glide_res:A117_dist>
2.02237093019418

> <r_glide_res:A117_Eint>
6.45146958334393

> <r_glide_res:A113_vdw>
-3.70227996246672

> <r_glide_res:A113_coul>
18.5837398021098

> <r_glide_res:A113_hbond>
0

> <r_glide_res:A113_dist>
2.20097012076958

> <r_glide_res:A113_Eint>
14.8814598396431

> <r_glide_res:A82_vdw>
0.433527952259174

> <r_glide_res:A82_coul>
-44.7629220564505

> <r_glide_res:A82_hbond>
-0.131443860742745

> <r_glide_res:A82_dist>
1.94085602571957

> <r_glide_res:A82_Eint>
-44.4608379649341

> <r_glide_res:A42_vdw>
-1.00398696838229

> <r_glide_res:A42_coul>
-52.8995722856126

> <r_glide_res:A42_hbond>
-0.30620905213395

> <r_glide_res:A42_dist>
2.04800606983767

> <r_glide_res:A42_Eint>
-54.2097683061288

> <r_glide_res:A16_vdw>
-1.27846054200855

> <r_glide_res:A16_coul>
-38.9325741343946

> <r_glide_res:A16_hbond>
0

> <r_glide_res:A16_dist>
2.94104612571559

> <r_glide_res:A16_Eint>
-40.2110346764032

> <s_m_source_file>
ligprep_Nicaido_neutral.maegz

> <i_m_source_file_index>
6

> <i_lp_mmshare_version>
58128

> <i_f3d_flags>
0

> <s_lp_Force_Field>
S-OPLS

> <r_lp_Energy>
51.702138

> <b_lp_Chiralities_Consistent>
1

> <s_lp_Variant>
Cefotaxime-2

> <s_epik_input>
W0NIM11DKD1PKU9bQ0gyXUMoPUMxQyg9TylbT0hdKVtDSDJdU1tDQEBIXShOMTIpW0NASF0oQzI9TylbTkhdQyg9TykvQyg9Ti9PW0NIM10pYzNbY0hdc2MobjMpW05IMl0=

> <s_epik_cmdline>
J2VwaWtfcHl0aG9uJywgJy1waHQnLCAnMC4wJywgJy1waCcsICc3LjQnLCAnLW50JywgJy1tYScsICc1MDAnLCAnLWltYWUnLCAnPGluZmlsZS5tYWU+JywgJy1vbWFlJywgJzxvdXRmaWxlLm1hZT4n

> <r_lp_tautomer_probability>
1

> <r_epik_Ionization_Penalty>
  0.0004

> <r_epik_Ionization_Penalty_Charging>
  0.0000

> <r_epik_Ionization_Penalty_Neutral>
  0.0004

> <r_epik_State_Penalty>
  0.0000

> <r_epik_Charging_Adjusted_Penalty>
5.45682606121274e-06

> <i_epik_Tot_Q>
-1

> <i_epik_Tot_abs_Q>
1

> <s_epik_Chemistry_Notes>
This compound has an ester and may undergo hydrolysis at high or low pH. This compound has an imine and may undergo hydrolysis. This compound contains an acetal/aminal-like group ( X-CH(R)-Y where X, Y are N, S, or O) that may be acid/base labile, releasing an aldehyde.

> <s_m_subgroup_title>
glide-dock_Nicaido_neutral_pv1

> <s_m_subgroupid>
glide-dock_Nicaido_neutral_pv1

> <b_m_subgroup_collapsed>
0

$$$$
Cefuroxime
                    3D
 Schrodinger Suite 2022-2.
 44 46  0  0  1  0            999 V2000
  -36.1722  -19.5104  -28.6831 C   0  0  0  0  0  0
  -35.2628  -18.5345  -28.2054 O   0  0  0  0  0  0
  -34.2614  -19.2043  -27.4841 N   0  0  0  0  0  0
  -33.4372  -18.4118  -26.9221 C   0  0  0  0  0  0
  -33.5135  -16.9564  -26.9910 C   0  0  0  0  0  0
  -32.7691  -15.9934  -27.6131 C   0  0  0  0  0  0
  -33.3249  -14.7482  -27.2248 C   0  0  0  0  0  0
  -34.3748  -15.0397  -26.4049 C   0  0  0  0  0  0
  -34.5079  -16.3843  -26.2533 O   0  0  0  0  0  0
  -32.2656  -18.9621  -26.1311 C   0  0  0  0  0  0
  -31.5927  -18.0509  -25.3899 N   0  0  0  0  0  0
  -30.3742  -18.2364  -24.5820 C   0  0  1  0  0  0
  -30.4955  -19.3114  -23.4838 C   0  0  1  0  0  0
  -29.2522  -19.8626  -24.0006 N   0  0  0  0  0  0
  -29.3072  -19.1682  -25.1972 C   0  0  0  0  0  0
  -28.7788  -19.3168  -26.2760 O   0  0  0  0  0  0
  -28.7489  -21.0463  -23.4356 C   0  0  0  0  0  0
  -28.4631  -22.2583  -24.4137 C   0  0  0  0  0  0
  -27.5656  -23.0743  -24.1006 O   0  5  0  0  0  0
  -29.1685  -22.3495  -25.4455 O   0  0  0  0  0  0
  -28.5789  -21.0762  -22.0882 C   0  0  0  0  0  0
  -28.8038  -19.8079  -21.2601 C   0  0  0  0  0  0
  -30.3181  -18.8952  -21.7112 S   0  0  0  0  0  0
  -27.9844  -22.2634  -21.3334 C   0  0  0  0  0  0
  -28.5686  -22.4752  -20.0617 O   0  0  0  0  0  0
  -28.0871  -23.4457  -19.2794 C   0  0  0  0  0  0
  -28.7689  -23.4203  -18.0907 N   0  0  0  0  0  0
  -27.1966  -24.2410  -19.5900 O   0  0  0  0  0  0
  -31.9699  -20.1571  -26.2032 O   0  0  0  0  0  0
  -36.9632  -19.0279  -29.2572 H   0  0  0  0  0  0
  -35.6753  -20.2316  -29.3330 H   0  0  0  0  0  0
  -36.6414  -20.0503  -27.8587 H   0  0  0  0  0  0
  -31.9132  -16.1651  -28.2464 H   0  0  0  0  0  0
  -32.9918  -13.7605  -27.5044 H   0  0  0  0  0  0
  -35.0931  -14.4363  -25.8688 H   0  0  0  0  0  0
  -31.9334  -17.0986  -25.4153 H   0  0  0  0  0  0
  -29.9769  -17.2985  -24.1911 H   0  0  0  0  0  0
  -31.3177  -20.0152  -23.6285 H   0  0  0  0  0  0
  -28.8549  -20.0177  -20.1919 H   0  0  0  0  0  0
  -27.9466  -19.1489  -21.4036 H   0  0  0  0  0  0
  -28.1158  -23.1918  -21.8841 H   0  0  0  0  0  0
  -26.9121  -22.0911  -21.2180 H   0  0  0  0  0  0
  -29.5379  -22.7509  -18.0135 H   0  0  0  0  0  0
  -28.4937  -24.0484  -17.3512 H   0  0  0  0  0  0
  1  2  1  0  0  0
  1 30  1  0  0  0
  1 31  1  0  0  0
  1 32  1  0  0  0
  2  3  1  0  0  0
  3  4  2  3  0  0
  4  5  1  0  0  0
  4 10  1  0  0  0
  5  9  1  0  0  0
  5  6  2  0  0  0
  6  7  1  0  0  0
  6 33  1  0  0  0
  7  8  2  0  0  0
  7 34  1  0  0  0
  8  9  1  0  0  0
  8 35  1  0  0  0
 10 11  1  0  0  0
 10 29  2  0  0  0
 11 12  1  0  0  0
 11 36  1  0  0  0
 12 15  1  0  0  0
 12 13  1  0  0  0
 12 37  1  0  0  0
 13 23  1  0  0  0
 13 14  1  0  0  0
 13 38  1  0  0  0
 14 15  1  0  0  0
 14 17  1  0  0  0
 15 16  2  0  0  0
 17 18  1  0  0  0
 17 21  2  0  0  0
 18 19  1  0  0  0
 18 20  2  0  0  0
 21 22  1  0  0  0
 21 24  1  0  0  0
 22 23  1  0  0  0
 22 39  1  0  0  0
 22 40  1  0  0  0
 24 25  1  0  0  0
 24 41  1  0  0  0
 24 42  1  0  0  0
 25 26  1  0  0  0
 26 27  1  0  0  0
 26 28  2  0  0  0
 27 43  1  0  0  0
 27 44  1  0  0  0
M  CHG  1  19  -1
M  END
> <s_m_entry_id>
27524

> <s_m_entry_name>
data_maestro.10

> <s_m_Source_Path>
C:\Users\olshana1\Git\GramNeg-Accumulation\Gram Negative Permeation - OmpF

> <s_m_Source_File>
data_maestro.csv

> <i_m_Source_File_Index>
10

> <s_m_job_name>
glide-dock_Nicaido_neutral

> <s_i_glide_gridfile>
3POX-grid

> <i_i_glide_lignum>
13

> <i_i_glide_rotatable_bonds>
9

> <r_i_docking_score>
-4.7511469713388

> <r_i_glide_ligand_efficiency>
-0.163832654184097

> <r_i_glide_ligand_efficiency_sa>
-0.503345819481599

> <r_i_glide_ligand_efficiency_ln>
-1.08789217774458

> <r_i_glide_gscore>
-4.7511469713388

> <r_i_glide_lipo>
-0.305616088368482

> <r_i_glide_hbond>
-0.741735888530751

> <r_i_glide_metal>
0

> <r_i_glide_rewards>
-0.522180322337096

> <r_i_glide_evdw>
-30.4682674407959

> <r_i_glide_ecoul>
-11.8856983184814

> <r_i_glide_erotb>
0.663396273735242

> <r_i_glide_esite>
-0.538742826025701

> <r_i_glide_emodel>
-65.0677710092903

> <r_i_glide_energy>
-42.3539657592773

> <r_i_glide_einternal>
6.67749500274658

> <i_i_glide_confnum>
98

> <i_i_glide_posenum>
42

> <r_i_glide_eff_state_penalty>
0

> <r_glide_res:A132_vdw>
-0.802847345552812

> <r_glide_res:A132_coul>
-33.0015119385645

> <r_glide_res:A132_hbond>
-0.191533960008975

> <r_glide_res:A132_dist>
2.00440128786325

> <r_glide_res:A132_Eint>
-33.9958932441263

> <r_glide_res:A117_vdw>
-4.83239874767527

> <r_glide_res:A117_coul>
25.2210987688094

> <r_glide_res:A117_hbond>
0

> <r_glide_res:A117_dist>
2.19208847424636

> <r_glide_res:A117_Eint>
20.3887000211341

> <r_glide_res:A113_vdw>
-2.36488776030772

> <r_glide_res:A113_coul>
17.2434892394405

> <r_glide_res:A113_hbond>
-0.16

> <r_glide_res:A113_dist>
1.8715053917329

> <r_glide_res:A113_Eint>
14.7186014791328

> <r_glide_res:A82_vdw>
-1.19916967055588

> <r_glide_res:A82_coul>
-40.5275543766042

> <r_glide_res:A82_hbond>
-0.0616628674998745

> <r_glide_res:A82_dist>
2.26523460653671

> <r_glide_res:A82_Eint>
-41.7883869146599

> <r_glide_res:A42_vdw>
0.350031322208581

> <r_glide_res:A42_coul>
-53.8811464200188

> <r_glide_res:A42_hbond>
-0.323447661842746

> <r_glide_res:A42_dist>
1.78072829519296

> <r_glide_res:A42_Eint>
-53.8545627596529

> <r_glide_res:A16_vdw>
-1.99996646298337

> <r_glide_res:A16_coul>
-42.8400329180042

> <r_glide_res:A16_hbond>
0

> <r_glide_res:A16_dist>
2.7372970000598

> <r_glide_res:A16_Eint>
-44.8399993809876

> <s_m_source_file>
ligprep_Nicaido_neutral.maegz

> <i_m_source_file_index>
10

> <i_lp_mmshare_version>
58128

> <i_f3d_flags>
0

> <s_lp_Force_Field>
S-OPLS

> <r_lp_Energy>
41.721283

> <b_lp_Chiralities_Consistent>
1

> <s_lp_Variant>
Cefuroxime-1

> <s_epik_input>
bzFbY0hdW2NIXVtjSF1jMS9DKD1OXE9bQ0gzXSlDKD1PKVtOSF1bQ0BASF0yQyg9TylOKFtDQEhdMjMpQyhDKD1PKVtPSF0pPUMoW0NIMl1TMylbQ0gyXU9DKD1PKVtOSDJd

> <s_epik_cmdline>
J2VwaWtfcHl0aG9uJywgJy1waHQnLCAnMC4wJywgJy1waCcsICc3LjQnLCAnLW50JywgJy1tYScsICc1MDAnLCAnLWltYWUnLCAnPGluZmlsZS5tYWU+JywgJy1vbWFlJywgJzxvdXRmaWxlLm1hZT4n

> <r_lp_tautomer_probability>
1

> <r_epik_Ionization_Penalty>
  0.0000

> <r_epik_Ionization_Penalty_Charging>
  0.0000

> <r_epik_Ionization_Penalty_Neutral>
  0.0000

> <r_epik_State_Penalty>
  0.0000

> <r_epik_Charging_Adjusted_Penalty>
8.57368987839538e-06

> <i_epik_Tot_Q>
-1

> <i_epik_Tot_abs_Q>
1

> <s_epik_Chemistry_Notes>
This compound has an ester and may undergo hydrolysis at high or low pH. This compound has an imine and may undergo hydrolysis. This compound contains an acetal/aminal-like group ( X-CH(R)-Y where X, Y are N, S, or O) that may be acid/base labile, releasing an aldehyde.

> <s_m_subgroup_title>
glide-dock_Nicaido_neutral_pv1

> <s_m_subgroupid>
glide-dock_Nicaido_neutral_pv1

> <b_m_subgroup_collapsed>
0

$$$$
Cefmetazole
                    3D
 Schrodinger Suite 2022-2.
 46 48  0  0  1  0            999 V2000
  -33.0857  -16.1932  -26.0117 C   0  0  0  0  0  0
  -33.1622  -17.4510  -26.7284 N   0  0  0  0  0  0
  -32.8480  -18.7030  -26.3665 C   0  0  0  0  0  0
  -32.1695  -19.1120  -24.7882 S   0  0  0  0  0  0
  -32.2765  -20.9275  -24.8327 C   0  0  0  0  0  0
  -31.6064  -21.5470  -23.6056 C   0  0  0  0  0  0
  -30.3330  -22.0530  -23.5489 C   0  0  0  0  0  0
  -29.7990  -22.5569  -22.3269 N   0  0  0  0  0  0
  -30.3918  -22.2498  -21.0349 C   0  0  2  0  0  0
  -29.2836  -23.0947  -20.3632 C   0  0  1  0  0  0
  -29.7131  -24.3495  -19.8166 O   0  0  0  0  0  0
  -29.6732  -24.5253  -18.4013 C   0  0  0  0  0  0
  -28.7584  -23.3231  -21.8041 C   0  0  0  0  0  0
  -27.8420  -23.9493  -22.2983 O   0  0  0  0  0  0
  -28.3687  -22.2956  -19.5321 N   0  0  0  0  0  0
  -27.1155  -22.6320  -19.1771 C   0  0  0  0  0  0
  -26.3441  -21.6113  -18.3314 C   0  0  0  0  0  0
  -25.1633  -22.3508  -17.1605 S   0  0  0  0  0  0
  -23.7877  -22.8197  -18.2465 C   0  0  0  0  0  0
  -23.0468  -23.9526  -17.6688 C   0  0  0  0  0  0
  -22.4645  -24.8491  -17.2176 N   0  0  0  0  0  0
  -26.5930  -23.7007  -19.5098 O   0  0  0  0  0  0
  -32.1296  -22.7491  -21.1659 S   0  0  0  0  0  0
  -32.5418  -21.5040  -22.3980 C   0  0  0  0  0  0
  -29.3969  -22.1988  -24.8208 C   0  0  0  0  0  0
  -29.5729  -21.4496  -25.8072 O   0  5  0  0  0  0
  -28.5871  -23.1493  -24.8133 O   0  0  0  0  0  0
  -33.1104  -19.5499  -27.3583 N   0  0  0  0  0  0
  -33.5996  -18.7425  -28.3679 N   0  0  0  0  0  0
  -33.6355  -17.4950  -27.9983 N   0  0  0  0  0  0
  -34.0635  -15.9473  -25.5969 H   0  0  0  0  0  0
  -32.3666  -16.2639  -25.1958 H   0  0  0  0  0  0
  -32.7714  -15.3965  -26.6867 H   0  0  0  0  0  0
  -31.8920  -21.3186  -25.7681 H   0  0  0  0  0  0
  -33.3312  -21.2038  -24.8503 H   0  0  0  0  0  0
  -30.3112  -21.1826  -20.8140 H   0  0  0  0  0  0
  -30.3434  -25.3284  -18.1036 H   0  0  0  0  0  0
  -28.6708  -24.8056  -18.0784 H   0  0  0  0  0  0
  -29.9672  -23.6461  -17.8376 H   0  0  0  0  0  0
  -28.7450  -21.4172  -19.1959 H   0  0  0  0  0  0
  -27.0542  -21.0194  -17.7514 H   0  0  0  0  0  0
  -25.8169  -20.9184  -18.9873 H   0  0  0  0  0  0
  -23.1141  -21.9737  -18.3833 H   0  0  0  0  0  0
  -24.1505  -23.1217  -19.2276 H   0  0  0  0  0  0
  -32.5042  -20.5120  -21.9451 H   0  0  0  0  0  0
  -33.5743  -21.6831  -22.6974 H   0  0  0  0  0  0
  1  2  1  0  0  0
  1 31  1  0  0  0
  1 32  1  0  0  0
  1 33  1  0  0  0
  2 30  1  0  0  0
  2  3  1  0  0  0
  3  4  1  0  0  0
  3 28  2  0  0  0
  4  5  1  0  0  0
  5  6  1  0  0  0
  5 34  1  0  0  0
  5 35  1  0  0  0
  6 24  1  0  0  0
  6  7  2  0  0  0
  7  8  1  0  0  0
  7 25  1  0  0  0
  8 13  1  0  0  0
  8  9  1  0  0  0
  9 10  1  0  0  0
  9 23  1  0  0  0
  9 36  1  0  0  0
 10 11  1  0  0  0
 10 13  1  0  0  0
 10 15  1  0  0  0
 11 12  1  0  0  0
 12 37  1  0  0  0
 12 38  1  0  0  0
 12 39  1  0  0  0
 13 14  2  0  0  0
 15 16  1  0  0  0
 15 40  1  0  0  0
 16 17  1  0  0  0
 16 22  2  0  0  0
 17 18  1  0  0  0
 17 41  1  0  0  0
 17 42  1  0  0  0
 18 19  1  0  0  0
 19 20  1  0  0  0
 19 43  1  0  0  0
 19 44  1  0  0  0
 20 21  3  0  0  0
 23 24  1  0  0  0
 24 45  1  0  0  0
 24 46  1  0  0  0
 25 26  1  0  0  0
 25 27  2  0  0  0
 28 29  1  0  0  0
 29 30  2  0  0  0
M  CHG  1  26  -1
M  END
> <s_m_entry_id>
27525

> <s_m_entry_name>
data_maestro.3

> <s_m_Source_Path>
C:\Users\olshana1\Git\GramNeg-Accumulation\Gram Negative Permeation - OmpF

> <s_m_Source_File>
data_maestro.csv

> <i_m_Source_File_Index>
3

> <s_m_job_name>
glide-dock_Nicaido_neutral

> <s_i_glide_gridfile>
3POX-grid

> <i_i_glide_lignum>
3

> <i_i_glide_rotatable_bonds>
10

> <r_i_docking_score>
-4.74570430446128

> <r_i_glide_ligand_efficiency>
-0.158190143482043

> <r_i_glide_ligand_efficiency_sa>
-0.491533555391641

> <r_i_glide_ligand_efficiency_ln>
-1.07827572656353

> <r_i_glide_gscore>
-4.74570430446128

> <r_i_glide_lipo>
0

> <r_i_glide_hbond>
-0.749539805866688

> <r_i_glide_metal>
0

> <r_i_glide_rewards>
-0.200934501575938

> <r_i_glide_evdw>
-30.0607795715332

> <r_i_glide_ecoul>
-14.6199245452881

> <r_i_glide_erotb>
0.638850535935238

> <r_i_glide_esite>
-0.738052872584022

> <r_i_glide_emodel>
-65.4405069238518

> <r_i_glide_energy>
-44.6807041168213

> <r_i_glide_einternal>
10.5605707168579

> <i_i_glide_confnum>
107

> <i_i_glide_posenum>
223

> <r_i_glide_eff_state_penalty>
0

> <r_glide_res:A132_vdw>
-2.49742524704961

> <r_glide_res:A132_coul>
-34.6185195700628

> <r_glide_res:A132_hbond>
-0.0971320124810407

> <r_glide_res:A132_dist>
2.11659931756123

> <r_glide_res:A132_Eint>
-37.2130768295935

> <r_glide_res:A117_vdw>
-1.02310234235629

> <r_glide_res:A117_coul>
22.2393516344223

> <r_glide_res:A117_hbond>
0

> <r_glide_res:A117_dist>
3.90090240678632

> <r_glide_res:A117_Eint>
21.216249292066

> <r_glide_res:A113_vdw>
-2.77796388566009

> <r_glide_res:A113_coul>
7.19340812041392

> <r_glide_res:A113_hbond>
0

> <r_glide_res:A113_dist>
2.10810702915931

> <r_glide_res:A113_Eint>
4.41544423475382

> <r_glide_res:A82_vdw>
-2.16851579329458

> <r_glide_res:A82_coul>
-44.0247772658976

> <r_glide_res:A82_hbond>
-0.16

> <r_glide_res:A82_dist>
1.99040074571493

> <r_glide_res:A82_Eint>
-46.3532930591921

> <r_glide_res:A42_vdw>
0.755939936812436

> <r_glide_res:A42_coul>
-50.2850872005517

> <r_glide_res:A42_hbond>
-0.267635045421989

> <r_glide_res:A42_dist>
1.87918229967685

> <r_glide_res:A42_Eint>
-49.7967823091613

> <r_glide_res:A16_vdw>
-1.78743357826658

> <r_glide_res:A16_coul>
-43.33775557896

> <r_glide_res:A16_hbond>
-0.0305240337572803

> <r_glide_res:A16_dist>
2.43895193248544

> <r_glide_res:A16_Eint>
-45.1557131909839

> <s_m_source_file>
ligprep_Nicaido_neutral.maegz

> <i_m_source_file_index>
3

> <i_lp_mmshare_version>
58128

> <i_f3d_flags>
0

> <s_lp_Force_Field>
S-OPLS

> <r_lp_Energy>
32.161431

> <b_lp_Chiralities_Consistent>
1

> <s_lp_Variant>
Cefmetazole-1

> <s_epik_input>
bjFubmMobjFbQ0gzXSlTW0NIMl1DKD1DMkMoPU8pW09IXSlbQ0gyXVNbQ0BIXShOMjMpW0NAXShDMz1PKShPW0NIM10pW05IXUMoPU8pW0NIMl1TW0NIMl1DI04=

> <s_epik_cmdline>
J2VwaWtfcHl0aG9uJywgJy1waHQnLCAnMC4wJywgJy1waCcsICc3LjQnLCAnLW50JywgJy1tYScsICc1MDAnLCAnLWltYWUnLCAnPGluZmlsZS5tYWU+JywgJy1vbWFlJywgJzxvdXRmaWxlLm1hZT4n

> <r_lp_tautomer_probability>
1

> <r_epik_Ionization_Penalty>
  0.0000

> <r_epik_Ionization_Penalty_Charging>
  0.0000

> <r_epik_Ionization_Penalty_Neutral>
  0.0000

> <r_epik_State_Penalty>
  0.0000

> <r_epik_Charging_Adjusted_Penalty>
8.27330724987756e-06

> <i_epik_Tot_Q>
-1

> <i_epik_Tot_abs_Q>
1

> <s_epik_Chemistry_Notes>
This compound contains an acetal/aminal-like group ( X-CH(R)-Y where X, Y are N, S, or O) that may be acid/base labile, releasing an aldehyde.

> <s_m_subgroup_title>
glide-dock_Nicaido_neutral_pv1

> <s_m_subgroupid>
glide-dock_Nicaido_neutral_pv1

> <b_m_subgroup_collapsed>
0

$$$$
Cefacetrile
                    3D
 Schrodinger Suite 2022-2.
 35 36  0  0  1  0            999 V2000
  -19.0751  -21.5498  -25.2990 C   0  0  0  0  0  0
  -20.4165  -21.6137  -26.0127 C   0  0  0  0  0  0
  -21.1184  -22.7076  -25.6800 O   0  0  0  0  0  0
  -22.3874  -22.9510  -26.2732 C   0  0  0  0  0  0
  -23.5067  -22.4144  -25.3959 C   0  0  0  0  0  0
  -24.0211  -23.1209  -24.3544 C   0  0  0  0  0  0
  -24.9885  -22.5762  -23.4882 N   0  0  0  0  0  0
  -25.2494  -21.1469  -23.4302 C   0  0  2  0  0  0
  -26.3031  -21.4413  -22.3440 C   0  0  2  0  0  0
  -25.8116  -22.9103  -22.4228 C   0  0  0  0  0  0
  -26.0234  -23.9494  -21.8350 O   0  0  0  0  0  0
  -27.6972  -21.1705  -22.7275 N   0  0  0  0  0  0
  -28.4865  -21.7889  -23.6231 C   0  0  0  0  0  0
  -29.8963  -21.2191  -23.7587 C   0  0  0  0  0  0
  -30.5307  -21.6255  -25.0191 C   0  0  0  0  0  0
  -31.0215  -21.9504  -26.0159 N   0  0  0  0  0  0
  -28.1371  -22.7497  -24.3152 O   0  0  0  0  0  0
  -25.5838  -20.5641  -25.1193 S   0  0  0  0  0  0
  -23.9587  -21.0056  -25.7833 C   0  0  0  0  0  0
  -23.5691  -24.5953  -24.0792 C   0  0  0  0  0  0
  -22.4167  -24.7495  -23.6134 O   0  5  0  0  0  0
  -24.3688  -25.5005  -24.4127 O   0  0  0  0  0  0
  -20.7639  -20.7491  -26.8147 O   0  0  0  0  0  0
  -19.2205  -21.3671  -24.2338 H   0  0  0  0  0  0
  -18.5395  -22.4917  -25.4233 H   0  0  0  0  0  0
  -18.4624  -20.7498  -25.7139 H   0  0  0  0  0  0
  -22.4977  -24.0269  -26.4042 H   0  0  0  0  0  0
  -22.4570  -22.5307  -27.2774 H   0  0  0  0  0  0
  -24.3858  -20.6210  -23.0173 H   0  0  0  0  0  0
  -26.0395  -20.9490  -21.4073 H   0  0  0  0  0  0
  -28.1133  -20.3882  -22.2401 H   0  0  0  0  0  0
  -29.8706  -20.1288  -23.7276 H   0  0  0  0  0  0
  -30.5168  -21.5636  -22.9312 H   0  0  0  0  0  0
  -23.2215  -20.2848  -25.4283 H   0  0  0  0  0  0
  -24.0028  -20.9104  -26.8684 H   0  0  0  0  0  0
  1  2  1  0  0  0
  1 24  1  0  0  0
  1 25  1  0  0  0
  1 26  1  0  0  0
  2  3  1  0  0  0
  2 23  2  0  0  0
  3  4  1  0  0  0
  4  5  1  0  0  0
  4 27  1  0  0  0
  4 28  1  0  0  0
  5 19  1  0  0  0
  5  6  2  0  0  0
  6  7  1  0  0  0
  6 20  1  0  0  0
  7 10  1  0  0  0
  7  8  1  0  0  0
  8  9  1  0  0  0
  8 18  1  0  0  0
  8 29  1  0  0  0
  9 10  1  0  0  0
  9 12  1  0  0  0
  9 30  1  0  0  0
 10 11  2  0  0  0
 12 13  1  0  0  0
 12 31  1  0  0  0
 13 14  1  0  0  0
 13 17  2  0  0  0
 14 15  1  0  0  0
 14 32  1  0  0  0
 14 33  1  0  0  0
 15 16  3  0  0  0
 18 19  1  0  0  0
 19 34  1  0  0  0
 19 35  1  0  0  0
 20 21  1  0  0  0
 20 22  2  0  0  0
M  CHG  1  21  -1
M  END
> <s_m_entry_id>
27526

> <s_m_entry_name>
data_maestro.1

> <s_m_Source_Path>
C:\Users\olshana1\Git\GramNeg-Accumulation\Gram Negative Permeation - OmpF

> <s_m_Source_File>
data_maestro.csv

> <i_m_Source_File_Index>
1

> <s_m_job_name>
glide-dock_Nicaido_neutral

> <s_i_glide_gridfile>
3POX-grid

> <i_i_glide_lignum>
1

> <i_i_glide_rotatable_bonds>
7

> <r_i_docking_score>
-4.74352447852322

> <r_i_glide_ligand_efficiency>
-0.206240194718401

> <r_i_glide_ligand_efficiency_sa>
-0.586519679064808

> <r_i_glide_ligand_efficiency_ln>
-1.14702723080885

> <r_i_glide_gscore>
-4.74352447852322

> <r_i_glide_lipo>
-0.082548058426463

> <r_i_glide_hbond>
-0.589777114018673

> <r_i_glide_metal>
0

> <r_i_glide_rewards>
-1.19672539139947

> <r_i_glide_evdw>
-21.6168212890625

> <r_i_glide_ecoul>
-13.6684045791626

> <r_i_glide_erotb>
0.660867222788296

> <r_i_glide_esite>
-0.4042393861394

> <r_i_glide_emodel>
-55.0708297812981

> <r_i_glide_energy>
-35.2852258682251

> <r_i_glide_einternal>
8.49725723266602

> <i_i_glide_confnum>
14

> <i_i_glide_posenum>
1

> <r_i_glide_eff_state_penalty>
0

> <r_glide_res:A132_vdw>
-0.736003283684282

> <r_glide_res:A132_coul>
-36.330435197375

> <r_glide_res:A132_hbond>
-0.130458350356025

> <r_glide_res:A132_dist>
2.00146148680249

> <r_glide_res:A132_Eint>
-37.1968968314153

> <r_glide_res:A117_vdw>
-2.0376474358701

> <r_glide_res:A117_coul>
17.8826951169065

> <r_glide_res:A117_hbond>
0

> <r_glide_res:A117_dist>
3.74447723856786

> <r_glide_res:A117_Eint>
15.8450476810364

> <r_glide_res:A113_vdw>
-0.394295570444772

> <r_glide_res:A113_coul>
11.1172861243717

> <r_glide_res:A113_hbond>
0

> <r_glide_res:A113_dist>
4.55981624376856

> <r_glide_res:A113_Eint>
10.7229905539269

> <r_glide_res:A82_vdw>
-1.57657229702611

> <r_glide_res:A82_coul>
-46.5619018249743

> <r_glide_res:A82_hbond>
-0.136458121669175

> <r_glide_res:A82_dist>
1.97532798852916

> <r_glide_res:A82_Eint>
-48.2749322436696

> <r_glide_res:A42_vdw>
-3.48014669193498

> <r_glide_res:A42_coul>
-40.5401660998414

> <r_glide_res:A42_hbond>
-0.0879322302917714

> <r_glide_res:A42_dist>
2.25959985253973

> <r_glide_res:A42_Eint>
-44.1082450220681

> <r_glide_res:A16_vdw>
-0.386398093701211

> <r_glide_res:A16_coul>
-27.0953692262363

> <r_glide_res:A16_hbond>
-0.0349284117017007

> <r_glide_res:A16_dist>
2.36215812214513

> <r_glide_res:A16_Eint>
-27.5166957316392

> <s_m_source_file>
ligprep_Nicaido_neutral.maegz

> <i_m_source_file_index>
1

> <i_lp_mmshare_version>
58128

> <i_f3d_flags>
0

> <s_lp_Force_Field>
S-OPLS

> <r_lp_Energy>
24.277434

> <b_lp_Chiralities_Consistent>
1

> <s_lp_Variant>
Cefacetrile-1

> <s_epik_input>
W0NIM11DKD1PKU9bQ0gyXUMoPUMxQyg9TylbT0hdKVtDSDJdU1tDQEhdKE4xMilbQ0BIXShDMj1PKVtOSF1DKD1PKVtDSDJdQyNO

> <s_epik_cmdline>
J2VwaWtfcHl0aG9uJywgJy1waHQnLCAnMC4wJywgJy1waCcsICc3LjQnLCAnLW50JywgJy1tYScsICc1MDAnLCAnLWltYWUnLCAnPGluZmlsZS5tYWU+JywgJy1vbWFlJywgJzxvdXRmaWxlLm1hZT4n

> <r_lp_tautomer_probability>
1

> <r_epik_Ionization_Penalty>
  0.0000

> <r_epik_Ionization_Penalty_Charging>
  0.0000

> <r_epik_Ionization_Penalty_Neutral>
  0.0000

> <r_epik_State_Penalty>
  0.0000

> <r_epik_Charging_Adjusted_Penalty>
5.96156609429709e-06

> <i_epik_Tot_Q>
-1

> <i_epik_Tot_abs_Q>
1

> <s_epik_Chemistry_Notes>
This compound has an ester and may undergo hydrolysis at high or low pH. This compound contains an acetal/aminal-like group ( X-CH(R)-Y where X, Y are N, S, or O) that may be acid/base labile, releasing an aldehyde.

> <s_m_subgroup_title>
glide-dock_Nicaido_neutral_pv1

> <s_m_subgroupid>
glide-dock_Nicaido_neutral_pv1

> <b_m_subgroup_collapsed>
0

$$$$
Aztreonam
                    3D
 Schrodinger Suite 2022-2.
 43 44  0  0  1  0            999 V2000
  -31.3727  -23.2962  -22.4927 C   0  0  0  0  0  0
  -31.3945  -22.2393  -23.6012 C   0  0  1  0  0  0
  -30.1912  -21.2935  -23.8404 C   0  0  2  0  0  0
  -30.3276  -21.7314  -25.3220 C   0  0  0  0  0  0
  -31.1170  -22.7858  -24.9258 N   0  0  0  0  0  0
  -32.1196  -23.8788  -25.6886 S   0  0  0  0  0  0
  -33.4511  -23.2618  -25.6112 O   0  0  0  0  0  0
  -31.9689  -25.1191  -24.9118 O   0  5  0  0  0  0
  -31.5726  -23.9644  -27.0536 O   0  0  0  0  0  0
  -29.9699  -21.3392  -26.4133 O   0  0  0  0  0  0
  -28.9865  -21.7438  -23.1217 N   0  0  0  0  0  0
  -27.7668  -22.0450  -23.6164 C   0  0  0  0  0  0
  -26.7786  -22.5758  -22.5690 C   0  0  0  0  0  0
  -27.2270  -22.4915  -21.1613 C   0  0  0  0  0  0
  -27.0004  -21.3607  -20.4128 C   0  0  0  0  0  0
  -27.5767  -21.5348  -18.7788 S   0  0  0  0  0  0
  -28.1279  -23.1502  -19.1932 C   0  0  0  0  0  0
  -28.7695  -23.9501  -18.2707 N   0  0  0  0  0  0
  -27.8770  -23.5124  -20.4534 N   0  0  0  0  0  0
  -25.6312  -23.0900  -22.7836 N   0  0  0  0  0  0
  -25.2456  -23.1430  -24.1395 O   0  0  0  0  0  0
  -23.8498  -23.4410  -24.2668 C   0  0  0  0  0  0
  -23.5691  -24.9088  -23.8713 C   0  0  0  0  0  0
  -22.5307  -25.1496  -23.2132 O   0  5  0  0  0  0
  -24.3586  -25.7917  -24.2899 O   0  0  0  0  0  0
  -23.5249  -23.2909  -25.7670 C   0  0  0  0  0  0
  -22.9835  -22.4376  -23.4600 C   0  0  0  0  0  0
  -27.4770  -21.9494  -24.8118 O   0  0  0  0  0  0
  -31.3771  -22.8290  -21.5074 H   0  0  0  0  0  0
  -32.2500  -23.9415  -22.5436 H   0  0  0  0  0  0
  -30.4933  -23.9374  -22.5480 H   0  0  0  0  0  0
  -32.3344  -21.6817  -23.6225 H   0  0  0  0  0  0
  -30.4429  -20.2506  -23.6448 H   0  0  0  0  0  0
  -29.1100  -21.8441  -22.1234 H   0  0  0  0  0  0
  -26.5236  -20.4381  -20.7132 H   0  0  0  0  0  0
  -29.4778  -24.5619  -18.6441 H   0  0  0  0  0  0
  -29.1236  -23.4422  -17.4705 H   0  0  0  0  0  0
  -22.4490  -23.3311  -25.9449 H   0  0  0  0  0  0
  -23.9691  -24.0821  -26.3702 H   0  0  0  0  0  0
  -23.8815  -22.3343  -26.1511 H   0  0  0  0  0  0
  -21.9234  -22.5524  -23.6876 H   0  0  0  0  0  0
  -23.2579  -21.4093  -23.6981 H   0  0  0  0  0  0
  -23.0928  -22.5669  -22.3827 H   0  0  0  0  0  0
  1  2  1  0  0  0
  1 29  1  0  0  0
  1 30  1  0  0  0
  1 31  1  0  0  0
  2  5  1  0  0  0
  2  3  1  0  0  0
  2 32  1  0  0  0
  3  4  1  0  0  0
  3 11  1  0  0  0
  3 33  1  0  0  0
  4  5  1  0  0  0
  4 10  2  0  0  0
  5  6  1  0  0  0
  6  7  2  0  0  0
  6  8  1  0  0  0
  6  9  2  0  0  0
 11 12  1  0  0  0
 11 34  1  0  0  0
 12 13  1  0  0  0
 12 28  2  0  0  0
 13 14  1  0  0  0
 13 20  2  3  0  0
 14 19  1  0  0  0
 14 15  2  0  0  0
 15 16  1  0  0  0
 15 35  1  0  0  0
 16 17  1  0  0  0
 17 18  1  0  0  0
 17 19  2  0  0  0
 18 36  1  0  0  0
 18 37  1  0  0  0
 20 21  1  0  0  0
 21 22  1  0  0  0
 22 23  1  0  0  0
 22 26  1  0  0  0
 22 27  1  0  0  0
 23 24  1  0  0  0
 23 25  2  0  0  0
 26 38  1  0  0  0
 26 39  1  0  0  0
 26 40  1  0  0  0
 27 41  1  0  0  0
 27 42  1  0  0  0
 27 43  1  0  0  0
M  CHG  2   8  -1  24  -1
M  END
> <s_m_entry_id>
27527

> <s_m_entry_name>
data_maestro.21

> <s_m_Source_Path>
C:\Users\olshana1\Git\GramNeg-Accumulation\Gram Negative Permeation - OmpF

> <s_m_Source_File>
data_maestro.csv

> <i_m_Source_File_Index>
21

> <s_m_job_name>
glide-dock_Nicaido_neutral

> <s_i_glide_gridfile>
3POX-grid

> <i_i_glide_lignum>
27

> <i_i_glide_rotatable_bonds>
8

> <r_i_docking_score>
-4.74265848132602

> <r_i_glide_ligand_efficiency>
-0.169380660047358

> <r_i_glide_ligand_efficiency_sa>
-0.514339443777533

> <r_i_glide_ligand_efficiency_ln>
-1.09474482799387

> <r_i_glide_gscore>
-4.74265848132602

> <r_i_glide_lipo>
0

> <r_i_glide_hbond>
-0.781282177027153

> <r_i_glide_metal>
0

> <r_i_glide_rewards>
-0.445997524866969

> <r_i_glide_evdw>
-22.5365085601807

> <r_i_glide_ecoul>
-14.5109510421753

> <r_i_glide_erotb>
0.635830109179744

> <r_i_glide_esite>
-0.847740804276316

> <r_i_glide_emodel>
-62.3468644242975

> <r_i_glide_energy>
-37.047459602356

> <r_i_glide_einternal>
7.39571905136108

> <i_i_glide_confnum>
11

> <i_i_glide_posenum>
296

> <r_i_glide_eff_state_penalty>
0

> <r_glide_res:A132_vdw>
-2.77129396362185

> <r_glide_res:A132_coul>
-57.0038887469089

> <r_glide_res:A132_hbond>
-0.114132516857463

> <r_glide_res:A132_dist>
2.21466870785634

> <r_glide_res:A132_Eint>
-59.8893152273882

> <r_glide_res:A117_vdw>
-0.978119735800601

> <r_glide_res:A117_coul>
36.2766713202533

> <r_glide_res:A117_hbond>
0

> <r_glide_res:A117_dist>
4.19129492336104

> <r_glide_res:A117_Eint>
35.2985515844527

> <r_glide_res:A113_vdw>
-2.68322302806822

> <r_glide_res:A113_coul>
25.6836457994042

> <r_glide_res:A113_hbond>
0

> <r_glide_res:A113_dist>
2.65454950790327

> <r_glide_res:A113_Eint>
23.0004227713359

> <r_glide_res:A82_vdw>
-2.41649113198326

> <r_glide_res:A82_coul>
-77.1906474817484

> <r_glide_res:A82_hbond>
-0.14714966016969

> <r_glide_res:A82_dist>
1.92128272855601

> <r_glide_res:A82_Eint>
-79.7542882739014

> <r_glide_res:A42_vdw>
-2.4834874695796

> <r_glide_res:A42_coul>
-75.7835201548565

> <r_glide_res:A42_hbond>
-0.16

> <r_glide_res:A42_dist>
1.75020026727024

> <r_glide_res:A42_Eint>
-78.4270076244361

> <r_glide_res:A16_vdw>
0.112698933305837

> <r_glide_res:A16_coul>
-63.5284991420113

> <r_glide_res:A16_hbond>
-0.16

> <r_glide_res:A16_dist>
1.74560845440671

> <r_glide_res:A16_Eint>
-63.5758002087055

> <s_m_source_file>
ligprep_Nicaido_neutral.maegz

> <i_m_source_file_index>
21

> <i_lp_mmshare_version>
58128

> <i_f3d_flags>
0

> <s_lp_Force_Field>
S-OPLS

> <r_lp_Energy>
50.237147

> <b_lp_Chiralities_Consistent>
1

> <s_lp_Variant>
Aztreonam-2

> <s_epik_input>
Tz1TKD1PKShbT0hdKU4xQyg9TylbQ0BASF0oW0NAQEhdMVtDSDNdKVtOSF1DKD1PKS9DKGMyW2NIXXNjKG4yKVtOSDJdKT1OL09DKFtDSDNdKShbQ0gzXSlDKD1PKVtPSF0=

> <s_epik_cmdline>
J2VwaWtfcHl0aG9uJywgJy1waHQnLCAnMC4wJywgJy1waCcsICc3LjQnLCAnLW50JywgJy1tYScsICc1MDAnLCAnLWltYWUnLCAnPGluZmlsZS5tYWU+JywgJy1vbWFlJywgJzxvdXRmaWxlLm1hZT4n

> <r_lp_tautomer_probability>
1

> <r_epik_Ionization_Penalty>
  0.0004

> <r_epik_Ionization_Penalty_Charging>
  0.0000

> <r_epik_Ionization_Penalty_Neutral>
  0.0004

> <r_epik_State_Penalty>
  0.0000

> <r_epik_Charging_Adjusted_Penalty>
4.45674509427693e-05

> <i_epik_Tot_Q>
-2

> <i_epik_Tot_abs_Q>
2

> <s_epik_Chemistry_Notes>
This compound has an imine and may undergo hydrolysis.

> <s_m_subgroup_title>
glide-dock_Nicaido_neutral_pv1

> <s_m_subgroupid>
glide-dock_Nicaido_neutral_pv1

> <b_m_subgroup_collapsed>
0

$$$$
Ceftriaxone
                    3D
 Schrodinger Suite 2022-2.
 52 55  0  0  1  0            999 V2000
  -20.4866  -23.1977  -23.2208 C   0  0  0  0  0  0
  -21.8233  -23.6677  -22.8781 N   0  0  0  0  0  0
  -22.6026  -23.0073  -21.8862 C   0  0  0  0  0  0
  -21.5923  -21.9400  -20.7762 S   0  0  0  0  0  0
  -22.3397  -22.0575  -19.1065 C   0  0  0  0  0  0
  -23.8601  -21.9070  -19.0003 C   0  0  0  0  0  0
  -24.6923  -22.9166  -18.6198 C   0  0  0  0  0  0
  -26.0947  -22.7726  -18.5795 N   0  0  0  0  0  0
  -26.7735  -21.4873  -18.5956 C   0  0  2  0  0  0
  -28.1071  -22.2559  -18.7146 C   0  0  2  0  0  0
  -27.2489  -23.5381  -18.5197 C   0  0  0  0  0  0
  -27.4474  -24.7306  -18.4132 O   0  0  0  0  0  0
  -28.7689  -22.0472  -20.0178 N   0  0  0  0  0  0
  -28.8224  -22.8446  -21.1073 C   0  0  0  0  0  0
  -29.6354  -22.3140  -22.2778 C   0  0  0  0  0  0
  -30.1951  -20.9371  -22.1536 C   0  0  0  0  0  0
  -29.3902  -19.8198  -22.1066 C   0  0  0  0  0  0
  -30.3220  -18.3494  -22.0121 S   0  0  0  0  0  0
  -31.7829  -19.3183  -22.0461 C   0  0  0  0  0  0
  -33.0366  -18.7392  -22.0079 N   0  0  0  0  0  0
  -31.5623  -20.6299  -22.1189 N   0  0  0  0  0  0
  -29.8309  -23.0774  -23.2852 N   0  0  0  0  0  0
  -30.5621  -22.4683  -24.3163 O   0  0  0  0  0  0
  -31.3698  -23.4627  -24.9210 C   0  0  0  0  0  0
  -28.2810  -23.9492  -21.1943 O   0  0  0  0  0  0
  -26.0732  -20.4700  -19.9328 S   0  0  0  0  0  0
  -24.3553  -20.5075  -19.3620 C   0  0  0  0  0  0
  -24.1604  -24.3628  -18.3453 C   0  0  0  0  0  0
  -23.4839  -24.5455  -17.3068 O   0  5  0  0  0  0
  -24.4446  -25.2127  -19.2132 O   0  0  0  0  0  0
  -23.8968  -23.1069  -21.7992 N   0  0  0  0  0  0
  -24.5758  -23.9085  -22.7102 C   0  0  0  0  0  0
  -23.7373  -24.8361  -23.6451 C   0  0  0  0  0  0
  -24.3653  -25.6266  -24.3544 O   0  0  0  0  0  0
  -22.3818  -24.7496  -23.6133 N   0  5  0  0  0  0
  -25.8015  -23.9485  -22.8006 O   0  0  0  0  0  0
  -19.7783  -23.4233  -22.4229 H   0  0  0  0  0  0
  -20.1282  -23.6795  -24.1307 H   0  0  0  0  0  0
  -20.4847  -22.1216  -23.4002 H   0  0  0  0  0  0
  -21.8905  -21.2766  -18.4925 H   0  0  0  0  0  0
  -21.9807  -22.9893  -18.6768 H   0  0  0  0  0  0
  -26.6702  -20.9832  -17.6316 H   0  0  0  0  0  0
  -28.7687  -22.0354  -17.8756 H   0  0  0  0  0  0
  -29.3308  -21.2035  -20.0441 H   0  0  0  0  0  0
  -28.3106  -19.7604  -22.1219 H   0  0  0  0  0  0
  -33.7843  -19.3070  -21.6340 H   0  0  0  0  0  0
  -33.0802  -17.7672  -21.7353 H   0  0  0  0  0  0
  -31.9488  -23.0193  -25.7311 H   0  0  0  0  0  0
  -30.7692  -24.2726  -25.3376 H   0  0  0  0  0  0
  -32.0767  -23.8840  -24.2032 H   0  0  0  0  0  0
  -24.2501  -19.8610  -18.4908 H   0  0  0  0  0  0
  -23.7413  -20.0810  -20.1544 H   0  0  0  0  0  0
  1  2  1  0  0  0
  1 37  1  0  0  0
  1 38  1  0  0  0
  1 39  1  0  0  0
  2 35  1  0  0  0
  2  3  1  0  0  0
  3  4  1  0  0  0
  3 31  2  0  0  0
  4  5  1  0  0  0
  5  6  1  0  0  0
  5 40  1  0  0  0
  5 41  1  0  0  0
  6 27  1  0  0  0
  6  7  2  0  0  0
  7  8  1  0  0  0
  7 28  1  0  0  0
  8 11  1  0  0  0
  8  9  1  0  0  0
  9 10  1  0  0  0
  9 26  1  0  0  0
  9 42  1  0  0  0
 10 11  1  0  0  0
 10 13  1  0  0  0
 10 43  1  0  0  0
 11 12  2  0  0  0
 13 14  1  0  0  0
 13 44  1  0  0  0
 14 15  1  0  0  0
 14 25  2  0  0  0
 15 16  1  0  0  0
 15 22  2  3  0  0
 16 21  1  0  0  0
 16 17  2  0  0  0
 17 18  1  0  0  0
 17 45  1  0  0  0
 18 19  1  0  0  0
 19 20  1  0  0  0
 19 21  2  0  0  0
 20 46  1  0  0  0
 20 47  1  0  0  0
 22 23  1  0  0  0
 23 24  1  0  0  0
 24 48  1  0  0  0
 24 49  1  0  0  0
 24 50  1  0  0  0
 26 27  1  0  0  0
 27 51  1  0  0  0
 27 52  1  0  0  0
 28 29  1  0  0  0
 28 30  2  0  0  0
 31 32  1  0  0  0
 32 33  1  0  0  0
 32 36  2  0  0  0
 33 34  2  0  0  0
 33 35  1  0  0  0
M  CHG  2  29  -1  35  -1
M  END
> <s_m_entry_id>
27528

> <s_m_entry_name>
data_maestro.22

> <s_m_Source_Path>
C:\Users\olshana1\Git\GramNeg-Accumulation\Gram Negative Permeation - OmpF

> <s_m_Source_File>
data_maestro.csv

> <i_m_Source_File_Index>
22

> <s_m_job_name>
glide-dock_Nicaido_neutral

> <s_i_glide_gridfile>
3POX-grid

> <i_i_glide_lignum>
28

> <i_i_glide_rotatable_bonds>
9

> <r_i_docking_score>
-4.7375299985867

> <r_i_glide_ligand_efficiency>
-0.131598055516297

> <r_i_glide_ligand_efficiency_sa>
-0.434527204891764

> <r_i_glide_ligand_efficiency_ln>
-1.0336010524225

> <r_i_glide_gscore>
-4.7375299985867

> <r_i_glide_lipo>
0

> <r_i_glide_hbond>
-0.665492203208299

> <r_i_glide_metal>
0

> <r_i_glide_rewards>
0.30210289621738

> <r_i_glide_evdw>
-34.9535217285156

> <r_i_glide_ecoul>
-15.9160261154175

> <r_i_glide_erotb>
0.472124986767549

> <r_i_glide_esite>
-0.711185674624928

> <r_i_glide_emodel>
-77.0565587827798

> <r_i_glide_energy>
-50.8695478439331

> <r_i_glide_einternal>
11.5994853973389

> <i_i_glide_confnum>
276

> <i_i_glide_posenum>
228

> <r_i_glide_eff_state_penalty>
0

> <r_glide_res:A132_vdw>
-2.17637905992695

> <r_glide_res:A132_coul>
-78.5638948564795

> <r_glide_res:A132_hbond>
-0.182016423496281

> <r_glide_res:A132_dist>
1.88309731238128

> <r_glide_res:A132_Eint>
-80.9222903399027

> <r_glide_res:A117_vdw>
-2.29500186617923

> <r_glide_res:A117_coul>
34.9326746349141

> <r_glide_res:A117_hbond>
0

> <r_glide_res:A117_dist>
3.21706900584201

> <r_glide_res:A117_Eint>
32.6376727687348

> <r_glide_res:A113_vdw>
-5.65248034239402

> <r_glide_res:A113_coul>
26.0473025095233

> <r_glide_res:A113_hbond>
-0.00987854786984439

> <r_glide_res:A113_dist>
2.47012599828544

> <r_glide_res:A113_Eint>
20.3849436192594

> <r_glide_res:A82_vdw>
-1.00741217499431

> <r_glide_res:A82_coul>
-66.0119136529094

> <r_glide_res:A82_hbond>
-0.215785143875384

> <r_glide_res:A82_dist>
1.94588352259065

> <r_glide_res:A82_Eint>
-67.2351109717791

> <r_glide_res:A42_vdw>
-1.86953854599489

> <r_glide_res:A42_coul>
-50.3055749109928

> <r_glide_res:A42_hbond>
0

> <r_glide_res:A42_dist>
2.19726557855119

> <r_glide_res:A42_Eint>
-52.1751134569877

> <r_glide_res:A16_vdw>
-0.347797797830531

> <r_glide_res:A16_coul>
-32.1763895058092

> <r_glide_res:A16_hbond>
0

> <r_glide_res:A16_dist>
3.44985869976974

> <r_glide_res:A16_Eint>
-32.5241873036397

> <s_m_source_file>
ligprep_Nicaido_neutral.maegz

> <i_m_source_file_index>
22

> <i_lp_mmshare_version>
58128

> <i_f3d_flags>
0

> <s_lp_Force_Field>
S-OPLS

> <r_lp_Energy>
109.903222

> <b_lp_Chiralities_Consistent>
1

> <s_lp_Variant>
Ceftriaxone-1

> <s_epik_input>
W09IXWMobjEpYyg9TyluYyhuMVtDSDNdKVNbQ0gyXUMoPUMyQyg9TylbT0hdKVtDSDJdU1tDQEhdKE4yMylbQ0BIXShDMz1PKVtOSF1DKD1PKS9DKD1OL09bQ0gzXSljNFtjSF1zYyhuNClbTkgyXQ==

> <s_epik_cmdline>
J2VwaWtfcHl0aG9uJywgJy1waHQnLCAnMC4wJywgJy1waCcsICc3LjQnLCAnLW50JywgJy1tYScsICc1MDAnLCAnLWltYWUnLCAnPGluZmlsZS5tYWU+JywgJy1vbWFlJywgJzxvdXRmaWxlLm1hZT4n

> <r_lp_tautomer_probability>
1

> <r_epik_Ionization_Penalty>
  0.0014

> <r_epik_Ionization_Penalty_Charging>
  0.0010

> <r_epik_Ionization_Penalty_Neutral>
  0.0004

> <r_epik_State_Penalty>
  0.0000

> <r_epik_Charging_Adjusted_Penalty>
0.000994184415634904

> <i_epik_Tot_Q>
-2

> <i_epik_Tot_abs_Q>
2

> <s_epik_Chemistry_Notes>
This compound has an imine and may undergo hydrolysis. This compound contains an acetal/aminal-like group ( X-CH(R)-Y where X, Y are N, S, or O) that may be acid/base labile, releasing an aldehyde.

> <s_m_subgroup_title>
glide-dock_Nicaido_neutral_pv1

> <s_m_subgroupid>
glide-dock_Nicaido_neutral_pv1

> <b_m_subgroup_collapsed>
0

$$$$
Cephalexin
                    3D
 Schrodinger Suite 2022-2.
 40 42  0  0  1  0            999 V2000
  -29.4333  -22.4138  -20.4918 C   0  0  0  0  0  0
  -28.5839  -21.5761  -21.4322 C   0  0  0  0  0  0
  -28.3115  -21.8918  -22.7216 C   0  0  0  0  0  0
  -27.6278  -20.9498  -23.4952 N   0  0  0  0  0  0
  -26.3508  -20.4366  -23.0098 C   0  0  1  0  0  0
  -26.3460  -19.5963  -24.3039 C   0  0  2  0  0  0
  -27.3430  -20.6586  -24.8134 C   0  0  0  0  0  0
  -27.6887  -21.1496  -25.8655 O   0  0  0  0  0  0
  -25.0574  -19.5496  -25.0060 N   0  0  0  0  0  0
  -24.2683  -20.5518  -25.4414 C   0  0  0  0  0  0
  -22.9816  -20.1778  -26.2097 C   0  0  2  0  0  0
  -21.8563  -20.7782  -25.4374 C   0  0  0  0  0  0
  -21.2200  -21.9506  -25.9012 C   0  0  0  0  0  0
  -20.1313  -22.5199  -25.2134 C   0  0  0  0  0  0
  -19.6586  -21.9222  -24.0316 C   0  0  0  0  0  0
  -20.2785  -20.7568  -23.5463 C   0  0  0  0  0  0
  -21.3634  -20.1934  -24.2452 C   0  0  0  0  0  0
  -22.7689  -18.7496  -26.4322 N   0  0  0  0  0  0
  -24.5420  -21.7429  -25.2732 O   0  0  0  0  0  0
  -26.5161  -19.7086  -21.3306 S   0  0  0  0  0  0
  -28.2047  -20.2086  -20.8730 C   0  0  0  0  0  0
  -28.7689  -23.2137  -23.4287 C   0  0  0  0  0  0
  -28.5114  -24.2740  -22.8125 O   0  5  0  0  0  0
  -29.2383  -23.1496  -24.5890 O   0  0  0  0  0  0
  -28.9920  -22.4363  -19.4951 H   0  0  0  0  0  0
  -30.4167  -21.9505  -20.4134 H   0  0  0  0  0  0
  -29.5869  -23.4432  -20.8020 H   0  0  0  0  0  0
  -25.6037  -21.2333  -22.9870 H   0  0  0  0  0  0
  -26.7815  -18.6064  -24.1578 H   0  0  0  0  0  0
  -24.7689  -18.5931  -25.2134 H   0  0  0  0  0  0
  -23.0557  -20.6485  -27.1913 H   0  0  0  0  0  0
  -21.5690  -22.4126  -26.8134 H   0  0  0  0  0  0
  -19.6538  -23.4069  -25.6020 H   0  0  0  0  0  0
  -18.8193  -22.3491  -23.5027 H   0  0  0  0  0  0
  -19.9182  -20.2867  -22.6430 H   0  0  0  0  0  0
  -21.8201  -19.2893  -23.8674 H   0  0  0  0  0  0
  -22.7746  -18.5224  -27.4157 H   0  0  0  0  0  0
  -23.4801  -18.1528  -26.0134 H   0  0  0  0  0  0
  -28.9148  -19.4690  -21.2448 H   0  0  0  0  0  0
  -28.2819  -20.1959  -19.7848 H   0  0  0  0  0  0
  1  2  1  0  0  0
  1 25  1  0  0  0
  1 26  1  0  0  0
  1 27  1  0  0  0
  2 21  1  0  0  0
  2  3  2  0  0  0
  3  4  1  0  0  0
  3 22  1  0  0  0
  4  7  1  0  0  0
  4  5  1  0  0  0
  5  6  1  0  0  0
  5 20  1  0  0  0
  5 28  1  0  0  0
  6  7  1  0  0  0
  6  9  1  0  0  0
  6 29  1  0  0  0
  7  8  2  0  0  0
  9 10  1  0  0  0
  9 30  1  0  0  0
 10 11  1  0  0  0
 10 19  2  0  0  0
 11 12  1  0  0  0
 11 18  1  0  0  0
 11 31  1  0  0  0
 12 17  1  0  0  0
 12 13  2  0  0  0
 13 14  1  0  0  0
 13 32  1  0  0  0
 14 15  2  0  0  0
 14 33  1  0  0  0
 15 16  1  0  0  0
 15 34  1  0  0  0
 16 17  2  0  0  0
 16 35  1  0  0  0
 17 36  1  0  0  0
 18 37  1  0  0  0
 18 38  1  0  0  0
 20 21  1  0  0  0
 21 39  1  0  0  0
 21 40  1  0  0  0
 22 23  1  0  0  0
 22 24  2  0  0  0
M  CHG  1  23  -1
M  END
> <s_m_entry_id>
27529

> <s_m_entry_name>
data_maestro.14

> <s_m_Source_Path>
C:\Users\olshana1\Git\GramNeg-Accumulation\Gram Negative Permeation - OmpF

> <s_m_Source_File>
data_maestro.csv

> <i_m_Source_File_Index>
14

> <s_m_job_name>
glide-dock_Nicaido_neutral

> <s_i_glide_gridfile>
3POX-grid

> <i_i_glide_lignum>
19

> <i_i_glide_rotatable_bonds>
5

> <r_i_docking_score>
-4.7323134751064

> <r_i_glide_ligand_efficiency>
-0.197179728129433

> <r_i_glide_ligand_efficiency_sa>
-0.568764755733492

> <r_i_glide_ligand_efficiency_ln>
-1.13265976630854

> <r_i_glide_gscore>
-4.8475134751064

> <r_i_glide_lipo>
0

> <r_i_glide_hbond>
-0.953547978182257

> <r_i_glide_metal>
0

> <r_i_glide_rewards>
-1.04739483559293

> <r_i_glide_evdw>
-21.8876667022705

> <r_i_glide_ecoul>
-12.031702041626

> <r_i_glide_erotb>
0.475363118437828

> <r_i_glide_esite>
-0.422795138411612

> <r_i_glide_emodel>
-53.0789051833051

> <r_i_glide_energy>
-33.9193687438965

> <r_i_glide_einternal>
6.11099624633789

> <i_i_glide_confnum>
19

> <i_i_glide_posenum>
283

> <r_i_glide_eff_state_penalty>
0.1152

> <r_glide_res:A132_vdw>
-1.1811485050471

> <r_glide_res:A132_coul>
-34.4728142875651

> <r_glide_res:A132_hbond>
0

> <r_glide_res:A132_dist>
2.64876692268129

> <r_glide_res:A132_Eint>
-35.6539627926121

> <r_glide_res:A117_vdw>
-2.64184218351422

> <r_glide_res:A117_coul>
4.57552597769282

> <r_glide_res:A117_hbond>
-0.304

> <r_glide_res:A117_dist>
1.78468587656707

> <r_glide_res:A117_Eint>
1.62968379417859

> <r_glide_res:A113_vdw>
-1.41419563328407

> <r_glide_res:A113_coul>
23.069939992426

> <r_glide_res:A113_hbond>
0

> <r_glide_res:A113_dist>
2.41425288678533

> <r_glide_res:A113_Eint>
21.6557443591419

> <r_glide_res:A82_vdw>
3.28159843221295

> <r_glide_res:A82_coul>
-53.3049461082876

> <r_glide_res:A82_hbond>
-0.315043478469535

> <r_glide_res:A82_dist>
1.84780504640431

> <r_glide_res:A82_Eint>
-50.3383911545442

> <r_glide_res:A42_vdw>
-1.9279343431085

> <r_glide_res:A42_coul>
-50.3654207979024

> <r_glide_res:A42_hbond>
-0.334504499712722

> <r_glide_res:A42_dist>
2.05634239080297

> <r_glide_res:A42_Eint>
-52.6278596407236

> <r_glide_res:A16_vdw>
-0.508351312138649

> <r_glide_res:A16_coul>
-30.3798986824341

> <r_glide_res:A16_hbond>
0

> <r_glide_res:A16_dist>
3.4440412190691

> <r_glide_res:A16_Eint>
-30.8882499945727

> <s_m_source_file>
ligprep_Nicaido_neutral.maegz

> <i_m_source_file_index>
14

> <i_lp_mmshare_version>
58128

> <i_f3d_flags>
0

> <s_lp_Force_Field>
S-OPLS

> <r_lp_Energy>
47.820483

> <b_lp_Chiralities_Consistent>
1

> <s_lp_Variant>
Cephalexin-1

> <s_epik_input>
W09IXUMoPU8pQzE9QyhbQ0gzXSlbQ0gyXVNbQ0BASF0oTjEyKVtDQEhdKEMyPU8pW05IXUMoPU8pW0NAQEhdKFtOSDJdKWMzW2NIXVtjSF1bY0hdW2NIXVtjSF0z

> <s_epik_cmdline>
J2VwaWtfcHl0aG9uJywgJy1waHQnLCAnMC4wJywgJy1waCcsICc3LjQnLCAnLW50JywgJy1tYScsICc1MDAnLCAnLWltYWUnLCAnPGluZmlsZS5tYWU+JywgJy1vbWFlJywgJzxvdXRmaWxlLm1hZT4n

> <r_epik_Ionization_Penalty>
  0.1152

> <r_epik_Ionization_Penalty_Charging>
  0.0000

> <r_epik_Ionization_Penalty_Neutral>
  0.1152

> <r_epik_State_Penalty>
  0.1152

> <r_epik_Charging_Adjusted_Penalty>
0.115182589938214

> <i_epik_Tot_Q>
-1

> <i_epik_Tot_abs_Q>
1

> <s_epik_Chemistry_Notes>
This compound contains an acetal/aminal-like group ( X-CH(R)-Y where X, Y are N, S, or O) that may be acid/base labile, releasing an aldehyde.

> <s_m_subgroup_title>
glide-dock_Nicaido_neutral_pv1

> <s_m_subgroupid>
glide-dock_Nicaido_neutral_pv1

> <b_m_subgroup_collapsed>
0

$$$$
Carbenicillin
                    3D
 Schrodinger Suite 2022-2.
 42 44  0  0  1  0            999 V2000
  -22.5686  -22.7041  -20.6576 C   0  0  0  0  0  0
  -22.7375  -22.1436  -22.0858 C   0  0  0  0  0  0
  -23.6147  -23.0286  -23.0390 C   0  0  2  0  0  0
  -24.9485  -22.4975  -22.8715 N   0  0  0  0  0  0
  -25.1886  -21.0723  -22.7829 C   0  0  2  0  0  0
  -23.6623  -20.5587  -21.9296 S   0  0  0  0  0  0
  -26.5296  -21.3922  -22.1068 C   0  0  2  0  0  0
  -26.1722  -22.8689  -22.3641 C   0  0  0  0  0  0
  -26.6957  -23.9494  -22.1846 O   0  0  0  0  0  0
  -27.6822  -20.8544  -22.8426 N   0  0  0  0  0  0
  -28.0802  -21.0962  -24.1086 C   0  0  0  0  0  0
  -29.2216  -20.1803  -24.6176 C   0  0  2  0  0  0
  -30.3691  -20.0873  -23.6080 C   0  0  0  0  0  0
  -30.6549  -18.8457  -22.9960 C   0  0  0  0  0  0
  -31.6515  -18.7494  -22.0043 C   0  0  0  0  0  0
  -32.3715  -19.8955  -21.6157 C   0  0  0  0  0  0
  -32.1041  -21.1332  -22.2305 C   0  0  0  0  0  0
  -31.1090  -21.2294  -23.2234 C   0  0  0  0  0  0
  -29.7507  -20.6060  -26.0111 C   0  0  0  0  0  0
  -29.9684  -21.8130  -26.2907 O   0  5  0  0  0  0
  -29.9686  -19.6728  -26.8133 O   0  0  0  0  0  0
  -27.5401  -21.9491  -24.8197 O   0  0  0  0  0  0
  -23.4915  -24.5636  -22.9597 C   0  0  0  0  0  0
  -23.7177  -25.1492  -21.8795 O   0  5  0  0  0  0
  -23.1690  -25.1498  -24.0147 O   0  0  0  0  0  0
  -21.3519  -21.8771  -22.7006 C   0  0  0  0  0  0
  -21.9749  -23.6190  -20.6456 H   0  0  0  0  0  0
  -22.0607  -21.9845  -20.0155 H   0  0  0  0  0  0
  -23.5356  -22.9212  -20.1996 H   0  0  0  0  0  0
  -23.3587  -22.7602  -24.0658 H   0  0  0  0  0  0
  -25.2675  -20.5936  -23.7599 H   0  0  0  0  0  0
  -26.5290  -21.1121  -21.0529 H   0  0  0  0  0  0
  -28.2125  -20.1482  -22.3510 H   0  0  0  0  0  0
  -28.7800  -19.1890  -24.7349 H   0  0  0  0  0  0
  -30.0950  -17.9601  -23.2654 H   0  0  0  0  0  0
  -31.8494  -17.7998  -21.5307 H   0  0  0  0  0  0
  -33.1213  -19.8245  -20.8405 H   0  0  0  0  0  0
  -32.6558  -22.0111  -21.9286 H   0  0  0  0  0  0
  -30.8980  -22.1879  -23.6750 H   0  0  0  0  0  0
  -20.7897  -22.8030  -22.8245 H   0  0  0  0  0  0
  -21.4366  -21.4082  -23.6825 H   0  0  0  0  0  0
  -20.7615  -21.2097  -22.0708 H   0  0  0  0  0  0
  1  2  1  0  0  0
  1 27  1  0  0  0
  1 28  1  0  0  0
  1 29  1  0  0  0
  2  6  1  0  0  0
  2  3  1  0  0  0
  2 26  1  0  0  0
  3  4  1  0  0  0
  3 23  1  0  0  0
  3 30  1  0  0  0
  4  8  1  0  0  0
  4  5  1  0  0  0
  5  6  1  0  0  0
  5  7  1  0  0  0
  5 31  1  0  0  0
  7  8  1  0  0  0
  7 10  1  0  0  0
  7 32  1  0  0  0
  8  9  2  0  0  0
 10 11  1  0  0  0
 10 33  1  0  0  0
 11 12  1  0  0  0
 11 22  2  0  0  0
 12 13  1  0  0  0
 12 19  1  0  0  0
 12 34  1  0  0  0
 13 18  1  0  0  0
 13 14  2  0  0  0
 14 15  1  0  0  0
 14 35  1  0  0  0
 15 16  2  0  0  0
 15 36  1  0  0  0
 16 17  1  0  0  0
 16 37  1  0  0  0
 17 18  2  0  0  0
 17 38  1  0  0  0
 18 39  1  0  0  0
 19 20  1  0  0  0
 19 21  2  0  0  0
 23 24  1  0  0  0
 23 25  2  0  0  0
 26 40  1  0  0  0
 26 41  1  0  0  0
 26 42  1  0  0  0
M  CHG  2  20  -1  24  -1
M  END
> <s_m_entry_id>
27530

> <s_m_entry_name>
data_maestro.24

> <s_m_Source_Path>
C:\Users\olshana1\Git\GramNeg-Accumulation\Gram Negative Permeation - OmpF

> <s_m_Source_File>
data_maestro.csv

> <i_m_Source_File_Index>
24

> <s_m_job_name>
glide-dock_Nicaido_neutral

> <s_i_glide_gridfile>
3POX-grid

> <i_i_glide_lignum>
31

> <i_i_glide_rotatable_bonds>
6

> <r_i_docking_score>
-4.73008932544111

> <r_i_glide_ligand_efficiency>
-0.181926512516966

> <r_i_glide_ligand_efficiency_sa>
-0.538956577485251

> <r_i_glide_ligand_efficiency_ln>
-1.11084595739084

> <r_i_glide_gscore>
-4.73008932544111

> <r_i_glide_lipo>
0

> <r_i_glide_hbond>
-0.968540972012635

> <r_i_glide_metal>
0

> <r_i_glide_rewards>
-0.842027057396674

> <r_i_glide_evdw>
-16.5441665649414

> <r_i_glide_ecoul>
-13.8303737640381

> <r_i_glide_erotb>
0.409918473255716

> <r_i_glide_esite>
-0.427675376434734

> <r_i_glide_emodel>
-53.2434999646889

> <r_i_glide_energy>
-30.3745403289795

> <r_i_glide_einternal>
8.27970695495605

> <i_i_glide_confnum>
7

> <i_i_glide_posenum>
214

> <r_i_glide_eff_state_penalty>
0

> <r_glide_res:A132_vdw>
-0.830580225859327

> <r_glide_res:A132_coul>
-61.0207329331884

> <r_glide_res:A132_hbond>
-0.0448622149960592

> <r_glide_res:A132_dist>
2.30678084751743

> <r_glide_res:A132_Eint>
-61.8961753740438

> <r_glide_res:A117_vdw>
-2.78109582445241

> <r_glide_res:A117_coul>
44.3610123527491

> <r_glide_res:A117_hbond>
0

> <r_glide_res:A117_dist>
3.01329301750737

> <r_glide_res:A117_Eint>
41.5799165282967

> <r_glide_res:A113_vdw>
-2.45066231547328

> <r_glide_res:A113_coul>
35.9771611244853

> <r_glide_res:A113_hbond>
0

> <r_glide_res:A113_dist>
2.40136784834311

> <r_glide_res:A113_Eint>
33.526498809012

> <r_glide_res:A82_vdw>
-1.96839676734014

> <r_glide_res:A82_coul>
-65.1723758714998

> <r_glide_res:A82_hbond>
-0.16

> <r_glide_res:A82_dist>
2.02513795598203

> <r_glide_res:A82_Eint>
-67.3007726388399

> <r_glide_res:A42_vdw>
-1.35242183473488

> <r_glide_res:A42_coul>
-74.0868531689913

> <r_glide_res:A42_hbond>
-0.295461175054385

> <r_glide_res:A42_dist>
1.8377671070789

> <r_glide_res:A42_Eint>
-75.7347361787806

> <r_glide_res:A16_vdw>
2.43099531418441

> <r_glide_res:A16_coul>
-77.7417763584999

> <r_glide_res:A16_hbond>
-0.292219377105193

> <r_glide_res:A16_dist>
1.96853450391336

> <r_glide_res:A16_Eint>
-75.6030004214207

> <s_m_source_file>
ligprep_Nicaido_neutral.maegz

> <i_m_source_file_index>
24

> <i_lp_mmshare_version>
58128

> <i_f3d_flags>
0

> <s_lp_Force_Field>
S-OPLS

> <r_lp_Energy>
37.112724

> <b_lp_Chiralities_Consistent>
1

> <s_lp_Variant>
Carbenicillin-1

> <s_epik_input>
W09IXUMoPU8pW0NAQEhdMUMoW0NIM10pKFtDSDNdKVNbQ0BASF0oTjEyKVtDQEhdKEMyPU8pW05IXUMoPU8pW0NAQEhdKEMoPU8pW09IXSljM1tjSF1bY0hdW2NIXVtjSF1bY0hdMw==

> <s_epik_cmdline>
J2VwaWtfcHl0aG9uJywgJy1waHQnLCAnMC4wJywgJy1waCcsICc3LjQnLCAnLW50JywgJy1tYScsICc1MDAnLCAnLWltYWUnLCAnPGluZmlsZS5tYWU+JywgJy1vbWFlJywgJzxvdXRmaWxlLm1hZT4n

> <r_lp_tautomer_probability>
1

> <r_epik_Ionization_Penalty>
  0.0000

> <r_epik_Ionization_Penalty_Charging>
  0.0000

> <r_epik_Ionization_Penalty_Neutral>
  0.0000

> <r_epik_State_Penalty>
  0.0000

> <r_epik_Charging_Adjusted_Penalty>
4.98035685666923e-05

> <i_epik_Tot_Q>
-2

> <i_epik_Tot_abs_Q>
2

> <s_epik_Chemistry_Notes>
This compound contains an acetal/aminal-like group ( X-CH(R)-Y where X, Y are N, S, or O) that may be acid/base labile, releasing an aldehyde.

> <s_m_subgroup_title>
glide-dock_Nicaido_neutral_pv1

> <s_m_subgroupid>
glide-dock_Nicaido_neutral_pv1

> <b_m_subgroup_collapsed>
0

$$$$
Ceftizoxime
                    3D
 Schrodinger Suite 2022-2.
 37 39  0  0  1  0            999 V2000
  -24.7269  -25.0394  -17.6134 C   0  0  0  0  0  0
  -25.6605  -24.4181  -18.4693 O   0  0  0  0  0  0
  -25.2002  -23.1185  -18.7129 N   0  0  0  0  0  0
  -26.0307  -22.3606  -19.3162 C   0  0  0  0  0  0
  -25.6110  -20.9627  -19.6015 C   0  0  0  0  0  0
  -25.2778  -20.0873  -18.5932 C   0  0  0  0  0  0
  -24.7689  -18.5368  -19.2134 S   0  0  0  0  0  0
  -25.0253  -19.1496  -20.8397 C   0  0  0  0  0  0
  -24.7689  -18.3806  -21.9584 N   0  0  0  0  0  0
  -25.4629  -20.4079  -20.8803 N   0  0  0  0  0  0
  -27.4233  -22.7490  -19.8292 C   0  0  0  0  0  0
  -28.2137  -21.6858  -20.0723 N   0  0  0  0  0  0
  -29.4281  -21.6274  -20.8890 C   0  0  1  0  0  0
  -29.4134  -20.3323  -21.7311 C   0  0  1  0  0  0
  -29.5667  -21.1719  -22.9017 N   0  0  0  0  0  0
  -29.3480  -22.3726  -22.2490 C   0  0  0  0  0  0
  -29.1689  -23.5095  -22.6414 O   0  0  0  0  0  0
  -29.6580  -20.6259  -24.1895 C   0  0  0  0  0  0
  -29.2794  -21.5496  -25.3800 C   0  0  0  0  0  0
  -29.9689  -21.4356  -26.4134 O   0  5  0  0  0  0
  -28.3307  -22.3496  -25.2134 O   0  0  0  0  0  0
  -30.0092  -19.3373  -24.4018 C   0  0  0  0  0  0
  -30.3863  -18.3271  -23.3279 C   0  0  0  0  0  0
  -30.7623  -19.1038  -21.7338 S   0  0  0  0  0  0
  -27.7475  -23.9195  -20.0643 O   0  0  0  0  0  0
  -25.1689  -25.9496  -17.2134 H   0  0  0  0  0  0
  -23.8107  -25.2916  -18.1483 H   0  0  0  0  0  0
  -24.4716  -24.3980  -16.7694 H   0  0  0  0  0  0
  -25.3082  -20.2534  -17.5256 H   0  0  0  0  0  0
  -25.1892  -18.6570  -22.8352 H   0  0  0  0  0  0
  -24.6976  -17.3800  -21.8461 H   0  0  0  0  0  0
  -27.8780  -20.7829  -19.7659 H   0  0  0  0  0  0
  -30.3614  -21.7694  -20.3488 H   0  0  0  0  0  0
  -28.4418  -19.8314  -21.7515 H   0  0  0  0  0  0
  -30.0196  -18.9544  -25.4122 H   0  0  0  0  0  0
  -29.5689  -17.6184  -23.2007 H   0  0  0  0  0  0
  -31.2569  -17.7558  -23.6502 H   0  0  0  0  0  0
  1  2  1  0  0  0
  1 26  1  0  0  0
  1 27  1  0  0  0
  1 28  1  0  0  0
  2  3  1  0  0  0
  3  4  2  3  0  0
  4  5  1  0  0  0
  4 11  1  0  0  0
  5 10  1  0  0  0
  5  6  2  0  0  0
  6  7  1  0  0  0
  6 29  1  0  0  0
  7  8  1  0  0  0
  8  9  1  0  0  0
  8 10  2  0  0  0
  9 30  1  0  0  0
  9 31  1  0  0  0
 11 12  1  0  0  0
 11 25  2  0  0  0
 12 13  1  0  0  0
 12 32  1  0  0  0
 13 16  1  0  0  0
 13 14  1  0  0  0
 13 33  1  0  0  0
 14 24  1  0  0  0
 14 15  1  0  0  0
 14 34  1  0  0  0
 15 16  1  0  0  0
 15 18  1  0  0  0
 16 17  2  0  0  0
 18 19  1  0  0  0
 18 22  2  0  0  0
 19 20  1  0  0  0
 19 21  2  0  0  0
 22 23  1  0  0  0
 22 35  1  0  0  0
 23 24  1  0  0  0
 23 36  1  0  0  0
 23 37  1  0  0  0
M  CHG  1  20  -1
M  END
> <s_m_entry_id>
27531

> <s_m_entry_name>
data_maestro.5

> <s_m_Source_Path>
C:\Users\olshana1\Git\GramNeg-Accumulation\Gram Negative Permeation - OmpF

> <s_m_Source_File>
data_maestro.csv

> <i_m_Source_File_Index>
5

> <s_m_job_name>
glide-dock_Nicaido_neutral

> <s_i_glide_gridfile>
3POX-grid

> <i_i_glide_lignum>
6

> <i_i_glide_rotatable_bonds>
6

> <r_i_docking_score>
-4.72810605859535

> <r_i_glide_ligand_efficiency>
-0.189124242343814

> <r_i_glide_ligand_efficiency_sa>
-0.553002638746033

> <r_i_glide_ligand_efficiency_ln>
-1.120702825792

> <r_i_glide_gscore>
-4.72810605859535

> <r_i_glide_lipo>
0

> <r_i_glide_hbond>
-0.763229014105023

> <r_i_glide_metal>
0

> <r_i_glide_rewards>
-0.780996947805767

> <r_i_glide_evdw>
-28.7931175231934

> <r_i_glide_ecoul>
-11.563796043396

> <r_i_glide_erotb>
0.664075194683877

> <r_i_glide_esite>
-0.673730008699374

> <r_i_glide_emodel>
-59.592016460083

> <r_i_glide_energy>
-40.3569135665894

> <r_i_glide_einternal>
6.98079013824463

> <i_i_glide_confnum>
17

> <i_i_glide_posenum>
359

> <r_i_glide_eff_state_penalty>
0

> <r_glide_res:A132_vdw>
-1.68320954130602

> <r_glide_res:A132_coul>
-36.8843662458686

> <r_glide_res:A132_hbond>
-0.16

> <r_glide_res:A132_dist>
1.89347343565917

> <r_glide_res:A132_Eint>
-38.7275757871747

> <r_glide_res:A117_vdw>
-3.85042471586

> <r_glide_res:A117_coul>
21.4102687033528

> <r_glide_res:A117_hbond>
0

> <r_glide_res:A117_dist>
2.52768012317365

> <r_glide_res:A117_Eint>
17.5598439874928

> <r_glide_res:A113_vdw>
-3.17390018278093

> <r_glide_res:A113_coul>
17.9761904857396

> <r_glide_res:A113_hbond>
0

> <r_glide_res:A113_dist>
2.38440523176735

> <r_glide_res:A113_Eint>
14.8022903029587

> <r_glide_res:A82_vdw>
-1.70951098693527

> <r_glide_res:A82_coul>
-41.1239903147489

> <r_glide_res:A82_hbond>
-0.0554486287917081

> <r_glide_res:A82_dist>
2.36137842802073

> <r_glide_res:A82_Eint>
-42.8889499304759

> <r_glide_res:A42_vdw>
0.615194680451812

> <r_glide_res:A42_coul>
-53.0608803736721

> <r_glide_res:A42_hbond>
-0.347780385313315

> <r_glide_res:A42_dist>
1.87553379910584

> <r_glide_res:A42_Eint>
-52.7934660785336

> <r_glide_res:A16_vdw>
0.854468170220319

> <r_glide_res:A16_coul>
-48.6825330485438

> <r_glide_res:A16_hbond>
-0.2

> <r_glide_res:A16_dist>
1.75822351362115

> <r_glide_res:A16_Eint>
-48.0280648783235

> <s_m_source_file>
ligprep_Nicaido_neutral.maegz

> <i_m_source_file_index>
5

> <i_lp_mmshare_version>
58128

> <i_f3d_flags>
0

> <s_lp_Force_Field>
S-OPLS

> <r_lp_Energy>
52.500132

> <b_lp_Chiralities_Consistent>
1

> <s_lp_Variant>
Ceftizoxime-2

> <s_epik_input>
W05IMl1jKG4xKXNbY0hdYzEvQyg9TlxPW0NIM10pQyg9TylbTkhdW0NAQEhdMkMoPU8pTihbQ0BIXTIzKUMoQyg9TylbT0hdKT1bQ0hdW0NIMl1TMw==

> <s_epik_cmdline>
J2VwaWtfcHl0aG9uJywgJy1waHQnLCAnMC4wJywgJy1waCcsICc3LjQnLCAnLW50JywgJy1tYScsICc1MDAnLCAnLWltYWUnLCAnPGluZmlsZS5tYWU+JywgJy1vbWFlJywgJzxvdXRmaWxlLm1hZT4n

> <r_lp_tautomer_probability>
1

> <r_epik_Ionization_Penalty>
  0.0005

> <r_epik_Ionization_Penalty_Charging>
  0.0000

> <r_epik_Ionization_Penalty_Neutral>
  0.0005

> <r_epik_State_Penalty>
  0.0000

> <r_epik_Charging_Adjusted_Penalty>
4.86746471452517e-05

> <i_epik_Tot_Q>
-1

> <i_epik_Tot_abs_Q>
1

> <s_epik_Chemistry_Notes>
This compound has an imine and may undergo hydrolysis. This compound contains an acetal/aminal-like group ( X-CH(R)-Y where X, Y are N, S, or O) that may be acid/base labile, releasing an aldehyde.

> <s_m_subgroup_title>
glide-dock_Nicaido_neutral_pv1

> <s_m_subgroupid>
glide-dock_Nicaido_neutral_pv1

> <b_m_subgroup_collapsed>
0

$$$$
Ceftriaxone
                    3D
 Schrodinger Suite 2022-2.
 52 55  0  0  1  0            999 V2000
  -24.7687  -24.1103  -17.4169 C   0  0  0  0  0  0
  -23.8798  -24.1631  -18.5678 N   0  0  0  0  0  0
  -24.1165  -23.3394  -19.7016 C   0  0  0  0  0  0
  -25.1429  -21.8566  -19.2999 S   0  0  0  0  0  0
  -25.5514  -21.1467  -20.9315 C   0  0  0  0  0  0
  -27.0534  -21.0513  -21.2080 C   0  0  0  0  0  0
  -27.8033  -22.1293  -21.5571 C   0  0  0  0  0  0
  -29.1709  -22.0537  -21.8644 N   0  0  0  0  0  0
  -29.9983  -20.9314  -21.4839 C   0  0  2  0  0  0
  -31.1666  -21.6121  -22.2210 C   0  0  2  0  0  0
  -30.1989  -22.8152  -22.3863 C   0  0  0  0  0  0
  -30.2353  -23.9504  -22.8134 O   0  0  0  0  0  0
  -31.4819  -20.9215  -23.4660 N   0  0  0  0  0  0
  -32.2539  -21.4018  -24.4546 C   0  0  0  0  0  0
  -32.2535  -20.5396  -25.7254 C   0  0  0  0  0  0
  -31.0422  -19.6901  -25.9289 C   0  0  0  0  0  0
  -31.1260  -18.4621  -26.5467 C   0  0  0  0  0  0
  -29.5687  -17.7010  -26.7152 S   0  0  0  0  0  0
  -28.8500  -19.0791  -25.9005 C   0  0  0  0  0  0
  -27.5009  -19.1474  -25.6133 N   0  0  0  0  0  0
  -29.7205  -20.0460  -25.6208 N   0  0  0  0  0  0
  -33.1632  -20.5056  -26.6247 N   0  0  0  0  0  0
  -34.2724  -21.3230  -26.3712 O   0  0  0  0  0  0
  -35.2141  -21.1161  -27.4079 C   0  0  0  0  0  0
  -32.8744  -22.4618  -24.3631 O   0  0  0  0  0  0
  -29.1727  -19.4082  -22.0290 S   0  0  0  0  0  0
  -27.6366  -19.6412  -21.0851 C   0  0  0  0  0  0
  -27.2027  -23.5496  -21.6635 C   0  0  0  0  0  0
  -27.1686  -24.2229  -20.6096 O   0  5  0  0  0  0
  -26.9222  -23.9496  -22.8129 O   0  0  0  0  0  0
  -23.6701  -23.6066  -20.8979 N   0  0  0  0  0  0
  -22.8667  -24.7299  -21.0866 C   0  0  0  0  0  0
  -22.3673  -25.4979  -19.8199 C   0  0  0  0  0  0
  -21.5375  -26.3879  -20.0130 O   0  0  0  0  0  0
  -22.8572  -25.1495  -18.6007 N   0  5  0  0  0  0
  -22.5145  -25.1412  -22.1948 O   0  0  0  0  0  0
  -25.8154  -24.0595  -17.7207 H   0  0  0  0  0  0
  -24.6564  -25.0096  -16.8135 H   0  0  0  0  0  0
  -24.5438  -23.2485  -16.7881 H   0  0  0  0  0  0
  -25.0846  -21.7007  -21.7435 H   0  0  0  0  0  0
  -25.1014  -20.1550  -20.9778 H   0  0  0  0  0  0
  -30.1307  -20.9394  -20.4134 H   0  0  0  0  0  0
  -32.0264  -21.7811  -21.5707 H   0  0  0  0  0  0
  -30.9737  -20.0605  -23.6204 H   0  0  0  0  0  0
  -32.0074  -17.9472  -26.8997 H   0  0  0  0  0  0
  -27.2262  -19.6977  -24.8129 H   0  0  0  0  0  0
  -26.9970  -18.2621  -25.6681 H   0  0  0  0  0  0
  -36.0872  -21.7454  -27.2374 H   0  0  0  0  0  0
  -35.5504  -20.0784  -27.4367 H   0  0  0  0  0  0
  -34.8003  -21.3784  -28.3826 H   0  0  0  0  0  0
  -27.8247  -19.4273  -20.0319 H   0  0  0  0  0  0
  -26.9199  -18.9004  -21.4392 H   0  0  0  0  0  0
  1  2  1  0  0  0
  1 37  1  0  0  0
  1 38  1  0  0  0
  1 39  1  0  0  0
  2 35  1  0  0  0
  2  3  1  0  0  0
  3  4  1  0  0  0
  3 31  2  0  0  0
  4  5  1  0  0  0
  5  6  1  0  0  0
  5 40  1  0  0  0
  5 41  1  0  0  0
  6 27  1  0  0  0
  6  7  2  0  0  0
  7  8  1  0  0  0
  7 28  1  0  0  0
  8 11  1  0  0  0
  8  9  1  0  0  0
  9 10  1  0  0  0
  9 26  1  0  0  0
  9 42  1  0  0  0
 10 11  1  0  0  0
 10 13  1  0  0  0
 10 43  1  0  0  0
 11 12  2  0  0  0
 13 14  1  0  0  0
 13 44  1  0  0  0
 14 15  1  0  0  0
 14 25  2  0  0  0
 15 16  1  0  0  0
 15 22  2  3  0  0
 16 21  1  0  0  0
 16 17  2  0  0  0
 17 18  1  0  0  0
 17 45  1  0  0  0
 18 19  1  0  0  0
 19 20  1  0  0  0
 19 21  2  0  0  0
 20 46  1  0  0  0
 20 47  1  0  0  0
 22 23  1  0  0  0
 23 24  1  0  0  0
 24 48  1  0  0  0
 24 49  1  0  0  0
 24 50  1  0  0  0
 26 27  1  0  0  0
 27 51  1  0  0  0
 27 52  1  0  0  0
 28 29  1  0  0  0
 28 30  2  0  0  0
 31 32  1  0  0  0
 32 33  1  0  0  0
 32 36  2  0  0  0
 33 34  2  0  0  0
 33 35  1  0  0  0
M  CHG  2  29  -1  35  -1
M  END
> <s_m_entry_id>
27532

> <s_m_entry_name>
data_maestro.22

> <s_m_Source_Path>
C:\Users\olshana1\Git\GramNeg-Accumulation\Gram Negative Permeation - OmpF

> <s_m_Source_File>
data_maestro.csv

> <i_m_Source_File_Index>
22

> <s_m_job_name>
glide-dock_Nicaido_neutral

> <s_i_glide_gridfile>
3POX-grid

> <i_i_glide_lignum>
29

> <i_i_glide_rotatable_bonds>
9

> <r_i_docking_score>
-4.72284874265974

> <r_i_glide_ligand_efficiency>
-0.131190242851659

> <r_i_glide_ligand_efficiency_sa>
-0.433180637143561

> <r_i_glide_ligand_efficiency_ln>
-1.03039799902094

> <r_i_glide_gscore>
-4.72284874265974

> <r_i_glide_lipo>
0

> <r_i_glide_hbond>
-0.814850214079417

> <r_i_glide_metal>
0

> <r_i_glide_rewards>
0.000576941511940848

> <r_i_glide_evdw>
-30.8737411499023

> <r_i_glide_ecoul>
-14.7117986679077

> <r_i_glide_erotb>
0.472124986767549

> <r_i_glide_esite>
-0.630243599178539

> <r_i_glide_emodel>
-75.804869134818

> <r_i_glide_energy>
-45.5855398178101

> <r_i_glide_einternal>
6.86202907562256

> <i_i_glide_confnum>
29

> <i_i_glide_posenum>
195

> <r_i_glide_eff_state_penalty>
0

> <r_glide_res:A132_vdw>
0.198354608869177

> <r_glide_res:A132_coul>
-81.1149376664062

> <r_glide_res:A132_hbond>
-0.328304897837271

> <r_glide_res:A132_dist>
1.821280034034

> <r_glide_res:A132_Eint>
-81.2448879553743

> <r_glide_res:A117_vdw>
-4.58887760802064

> <r_glide_res:A117_coul>
28.6510969380264

> <r_glide_res:A117_hbond>
-0.138090234467064

> <r_glide_res:A117_dist>
2.15477441383234

> <r_glide_res:A117_Eint>
23.9241290955387

> <r_glide_res:A113_vdw>
-2.67766702255716

> <r_glide_res:A113_coul>
35.8857497506331

> <r_glide_res:A113_hbond>
0

> <r_glide_res:A113_dist>
2.18686294964264

> <r_glide_res:A113_Eint>
33.208082728076

> <r_glide_res:A82_vdw>
3.29664585937221

> <r_glide_res:A82_coul>
-75.7389935365281

> <r_glide_res:A82_hbond>
-0.348455081775082

> <r_glide_res:A82_dist>
1.57691016355016

> <r_glide_res:A82_Eint>
-72.790802758931

> <r_glide_res:A42_vdw>
-1.56241323772817

> <r_glide_res:A42_coul>
-50.7583953810343

> <r_glide_res:A42_hbond>
0

> <r_glide_res:A42_dist>
3.47003999391695

> <r_glide_res:A42_Eint>
-52.3208086187625

> <r_glide_res:A16_vdw>
-2.05994378241832

> <r_glide_res:A16_coul>
-34.8889067129043

> <r_glide_res:A16_hbond>
0

> <r_glide_res:A16_dist>
2.67618278505153

> <r_glide_res:A16_Eint>
-36.9488504953226

> <s_m_source_file>
ligprep_Nicaido_neutral.maegz

> <i_m_source_file_index>
22

> <i_lp_mmshare_version>
58128

> <i_f3d_flags>
0

> <s_lp_Force_Field>
S-OPLS

> <r_lp_Energy>
111.196812

> <b_lp_Chiralities_Consistent>
1

> <s_lp_Variant>
Ceftriaxone-2

> <s_epik_input>
W09IXWMobjEpYyg9TyluYyhuMVtDSDNdKVNbQ0gyXUMoPUMyQyg9TylbT0hdKVtDSDJdU1tDQEhdKE4yMylbQ0BIXShDMz1PKVtOSF1DKD1PKS9DKD1OL09bQ0gzXSljNFtjSF1zYyhuNClbTkgyXQ==

> <s_epik_cmdline>
J2VwaWtfcHl0aG9uJywgJy1waHQnLCAnMC4wJywgJy1waCcsICc3LjQnLCAnLW50JywgJy1tYScsICc1MDAnLCAnLWltYWUnLCAnPGluZmlsZS5tYWU+JywgJy1vbWFlJywgJzxvdXRmaWxlLm1hZT4n

> <r_lp_tautomer_probability>
1

> <r_epik_Ionization_Penalty>
  0.0014

> <r_epik_Ionization_Penalty_Charging>
  0.0010

> <r_epik_Ionization_Penalty_Neutral>
  0.0004

> <r_epik_State_Penalty>
  0.0000

> <r_epik_Charging_Adjusted_Penalty>
0.000994184415634904

> <i_epik_Tot_Q>
-2

> <i_epik_Tot_abs_Q>
2

> <s_epik_Chemistry_Notes>
This compound has an imine and may undergo hydrolysis. This compound contains an acetal/aminal-like group ( X-CH(R)-Y where X, Y are N, S, or O) that may be acid/base labile, releasing an aldehyde.

> <s_m_subgroup_title>
glide-dock_Nicaido_neutral_pv1

> <s_m_subgroupid>
glide-dock_Nicaido_neutral_pv1

> <b_m_subgroup_collapsed>
0

$$$$
Moxalactam
                    3D
 Schrodinger Suite 2022-2.
 54 57  0  0  1  0            999 V2000
  -32.2822  -16.9218  -25.6885 C   0  0  0  0  0  0
  -31.4925  -17.4539  -26.7824 N   0  0  0  0  0  0
  -30.2826  -18.0333  -26.8271 C   0  0  0  0  0  0
  -29.2634  -18.3918  -25.4376 S   0  0  0  0  0  0
  -30.4129  -19.4418  -24.5008 C   0  0  0  0  0  0
  -29.7361  -20.2100  -23.3766 C   0  0  0  0  0  0
  -29.5775  -21.5535  -23.3383 C   0  0  0  0  0  0
  -29.9884  -22.5719  -24.4565 C   0  0  0  0  0  0
  -30.6435  -23.5718  -24.0936 O   0  5  0  0  0  0
  -29.5689  -22.3495  -25.6151 O   0  0  0  0  0  0
  -29.0407  -22.1019  -22.1728 N   0  0  0  0  0  0
  -28.8278  -21.3050  -20.9781 C   0  0  2  0  0  0
  -28.2550  -20.0848  -21.4278 O   0  0  0  0  0  0
  -29.2193  -19.3621  -22.2086 C   0  0  0  0  0  0
  -27.9424  -22.4678  -20.4618 C   0  0  1  0  0  0
  -28.4712  -23.2526  -21.6942 C   0  0  0  0  0  0
  -28.3392  -24.3495  -22.1921 O   0  0  0  0  0  0
  -26.4860  -22.2804  -20.5408 N   0  0  0  0  0  0
  -25.6194  -23.2950  -20.3334 C   0  0  0  0  0  0
  -24.1655  -23.1539  -20.8425 C   0  0  2  0  0  0
  -23.9689  -24.1293  -22.0492 C   0  0  0  0  0  0
  -22.8467  -24.6602  -22.2238 O   0  5  0  0  0  0
  -24.9406  -24.3492  -22.8123 O   0  0  0  0  0  0
  -23.1806  -23.4342  -19.6924 C   0  0  0  0  0  0
  -22.9780  -24.7378  -19.1727 C   0  0  0  0  0  0
  -22.1109  -24.9516  -18.0835 C   0  0  0  0  0  0
  -21.4416  -23.8663  -17.4899 C   0  0  0  0  0  0
  -20.6121  -24.0763  -16.4252 O   0  0  0  0  0  0
  -21.6336  -22.5666  -17.9981 C   0  0  0  0  0  0
  -22.4957  -22.3540  -19.0930 C   0  0  0  0  0  0
  -25.9691  -24.3496  -19.7933 O   0  0  0  0  0  0
  -28.4115  -23.0384  -19.2413 O   0  0  0  0  0  0
  -28.2160  -22.2209  -18.0938 C   0  0  0  0  0  0
  -29.9689  -18.3493  -28.0774 N   0  0  0  0  0  0
  -31.0654  -17.9491  -28.8117 N   0  0  0  0  0  0
  -31.9742  -17.4172  -28.0494 N   0  0  0  0  0  0
  -31.6471  -16.7235  -24.8253 H   0  0  0  0  0  0
  -33.0527  -17.6399  -25.4076 H   0  0  0  0  0  0
  -32.7552  -15.9868  -25.9913 H   0  0  0  0  0  0
  -31.1924  -18.8282  -24.0530 H   0  0  0  0  0  0
  -30.9146  -20.1162  -25.1932 H   0  0  0  0  0  0
  -29.7554  -21.1721  -20.4134 H   0  0  0  0  0  0
  -28.7686  -18.4480  -22.5850 H   0  0  0  0  0  0
  -30.0592  -19.0563  -21.5828 H   0  0  0  0  0  0
  -26.1674  -21.4229  -20.9695 H   0  0  0  0  0  0
  -24.0099  -22.1404  -21.2137 H   0  0  0  0  0  0
  -23.4954  -25.5799  -19.6083 H   0  0  0  0  0  0
  -21.9634  -25.9484  -17.7002 H   0  0  0  0  0  0
  -20.2517  -23.2638  -16.1007 H   0  0  0  0  0  0
  -21.1281  -21.7231  -17.5513 H   0  0  0  0  0  0
  -22.6417  -21.3491  -19.4621 H   0  0  0  0  0  0
  -28.6014  -22.7342  -17.2134 H   0  0  0  0  0  0
  -28.7541  -21.2763  -18.1822 H   0  0  0  0  0  0
  -27.1612  -22.0086  -17.9184 H   0  0  0  0  0  0
  1  2  1  0  0  0
  1 37  1  0  0  0
  1 38  1  0  0  0
  1 39  1  0  0  0
  2 36  1  0  0  0
  2  3  1  0  0  0
  3  4  1  0  0  0
  3 34  2  0  0  0
  4  5  1  0  0  0
  5  6  1  0  0  0
  5 40  1  0  0  0
  5 41  1  0  0  0
  6 14  1  0  0  0
  6  7  2  0  0  0
  7  8  1  0  0  0
  7 11  1  0  0  0
  8  9  1  0  0  0
  8 10  2  0  0  0
 11 16  1  0  0  0
 11 12  1  0  0  0
 12 13  1  0  0  0
 12 15  1  0  0  0
 12 42  1  0  0  0
 13 14  1  0  0  0
 14 43  1  0  0  0
 14 44  1  0  0  0
 15 16  1  0  0  0
 15 18  1  0  0  0
 15 32  1  0  0  0
 16 17  2  0  0  0
 18 19  1  0  0  0
 18 45  1  0  0  0
 19 20  1  0  0  0
 19 31  2  0  0  0
 20 21  1  0  0  0
 20 24  1  0  0  0
 20 46  1  0  0  0
 21 22  1  0  0  0
 21 23  2  0  0  0
 24 30  1  0  0  0
 24 25  2  0  0  0
 25 26  1  0  0  0
 25 47  1  0  0  0
 26 27  2  0  0  0
 26 48  1  0  0  0
 27 28  1  0  0  0
 27 29  1  0  0  0
 28 49  1  0  0  0
 29 30  2  0  0  0
 29 50  1  0  0  0
 30 51  1  0  0  0
 32 33  1  0  0  0
 33 52  1  0  0  0
 33 53  1  0  0  0
 33 54  1  0  0  0
 34 35  1  0  0  0
 35 36  2  0  0  0
M  CHG  2   9  -1  22  -1
M  END
> <s_m_entry_id>
27533

> <s_m_entry_name>
data_maestro.20

> <s_m_Source_Path>
C:\Users\olshana1\Git\GramNeg-Accumulation\Gram Negative Permeation - OmpF

> <s_m_Source_File>
data_maestro.csv

> <i_m_Source_File_Index>
20

> <s_m_job_name>
glide-dock_Nicaido_neutral

> <s_i_glide_gridfile>
3POX-grid

> <i_i_glide_lignum>
25

> <i_i_glide_rotatable_bonds>
11

> <r_i_docking_score>
-4.7219941648088

> <r_i_glide_ligand_efficiency>
-0.131166504578022

> <r_i_glide_ligand_efficiency_sa>
-0.43310225509109

> <r_i_glide_ligand_efficiency_ln>
-1.03021155322189

> <r_i_glide_gscore>
-4.7219941648088

> <r_i_glide_lipo>
0

> <r_i_glide_hbond>
-0.662471863192037

> <r_i_glide_metal>
0

> <r_i_glide_rewards>
0.0270522593409827

> <r_i_glide_evdw>
-30.7804412841797

> <r_i_glide_ecoul>
-13.4439029693604

> <r_i_glide_erotb>
0.534860792752126

> <r_i_glide_esite>
-1.06582784409683

> <r_i_glide_emodel>
-74.0345196991784

> <r_i_glide_energy>
-44.22434425354

> <r_i_glide_einternal>
6.52488470077515

> <i_i_glide_confnum>
74

> <i_i_glide_posenum>
236

> <r_i_glide_eff_state_penalty>
0

> <r_glide_res:A132_vdw>
0.621221330307929

> <r_glide_res:A132_coul>
-72.2380424583116

> <r_glide_res:A132_hbond>
-0.201257746472928

> <r_glide_res:A132_dist>
1.77023752978378

> <r_glide_res:A132_Eint>
-71.8180788744766

> <r_glide_res:A117_vdw>
-3.67885842391276

> <r_glide_res:A117_coul>
42.053836406326

> <r_glide_res:A117_hbond>
0

> <r_glide_res:A117_dist>
2.26837534437672

> <r_glide_res:A117_Eint>
38.3749779824132

> <r_glide_res:A113_vdw>
-3.43126298785178

> <r_glide_res:A113_coul>
34.951220983787

> <r_glide_res:A113_hbond>
0

> <r_glide_res:A113_dist>
2.45744919934048

> <r_glide_res:A113_Eint>
31.5199579959352

> <r_glide_res:A82_vdw>
-2.07977740242783

> <r_glide_res:A82_coul>
-80.6503692043551

> <r_glide_res:A82_hbond>
-0.261214116719109

> <r_glide_res:A82_dist>
2.0650084642716

> <r_glide_res:A82_Eint>
-82.9913607235021

> <r_glide_res:A42_vdw>
-0.204905737489897

> <r_glide_res:A42_coul>
-73.9843246272768

> <r_glide_res:A42_hbond>
-0.2

> <r_glide_res:A42_dist>
1.7641512975037

> <r_glide_res:A42_Eint>
-74.3892303647667

> <r_glide_res:A16_vdw>
-0.496705519344785

> <r_glide_res:A16_coul>
-57.964328930018

> <r_glide_res:A16_hbond>
0

> <r_glide_res:A16_dist>
2.26218410314368

> <r_glide_res:A16_Eint>
-58.4610344493628

> <s_m_source_file>
ligprep_Nicaido_neutral.maegz

> <i_m_source_file_index>
20

> <i_lp_mmshare_version>
58128

> <i_f3d_flags>
0

> <s_lp_Force_Field>
S-OPLS

> <r_lp_Energy>
52.146636

> <b_lp_Chiralities_Consistent>
1

> <s_lp_Variant>
Moxalactam-1

> <s_epik_input>
bjFubmMobjFbQ0gzXSlTW0NIMl1DKD1DMkMoPU8pW09IXSlbQ0gyXU9bQ0BASF0oTjIzKVtDQF0oQzM9TykoT1tDSDNdKVtOSF1DKD1PKVtDQEhdKEMoPU8pW09IXSljNFtjSF1bY0hdYyhbT0hdKVtjSF1bY0hdNA==

> <s_epik_cmdline>
J2VwaWtfcHl0aG9uJywgJy1waHQnLCAnMC4wJywgJy1waCcsICc3LjQnLCAnLW50JywgJy1tYScsICc1MDAnLCAnLWltYWUnLCAnPGluZmlsZS5tYWU+JywgJy1vbWFlJywgJzxvdXRmaWxlLm1hZT4n

> <r_lp_tautomer_probability>
1

> <r_epik_Ionization_Penalty>
  0.0029

> <r_epik_Ionization_Penalty_Charging>
  0.0001

> <r_epik_Ionization_Penalty_Neutral>
  0.0029

> <r_epik_State_Penalty>
  0.0000

> <r_epik_Charging_Adjusted_Penalty>
5.78268703870383e-05

> <i_epik_Tot_Q>
-2

> <i_epik_Tot_abs_Q>
2

> <s_epik_Chemistry_Notes>
This compound contains an acetal/aminal-like group ( X-CH(R)-Y where X, Y are N, S, or O) that may be acid/base labile, releasing an aldehyde.

> <s_m_subgroup_title>
glide-dock_Nicaido_neutral_pv1

> <s_m_subgroupid>
glide-dock_Nicaido_neutral_pv1

> <b_m_subgroup_collapsed>
0

$$$$
Cephaloridine
                    3D
 Schrodinger Suite 2022-2.
 45 48  0  0  1  0            999 V2000
  -26.6137  -21.1494  -25.4424 O   0  0  0  0  0  0
  -26.6173  -20.7268  -24.3067 C   0  0  0  0  0  0
  -25.7202  -19.8572  -23.3944 C   0  0  2  0  0  0
  -24.2894  -20.1803  -23.4420 N   0  0  0  0  0  0
  -23.6811  -21.3827  -23.4755 C   0  0  0  0  0  0
  -22.1864  -21.3682  -23.7955 C   0  0  0  0  0  0
  -21.9716  -20.8598  -25.1843 C   0  0  0  0  0  0
  -21.7976  -21.5768  -26.3396 C   0  0  0  0  0  0
  -21.6957  -20.7515  -27.4967 C   0  0  0  0  0  0
  -21.8060  -19.4216  -27.2134 C   0  0  0  0  0  0
  -21.9690  -19.1493  -25.5094 S   0  0  0  0  0  0
  -24.2555  -22.4599  -23.3067 O   0  0  0  0  0  0
  -26.4895  -20.5191  -22.2352 C   0  0  2  0  0  0
  -27.4823  -20.8789  -23.2403 N   0  0  0  0  0  0
  -28.6288  -21.5722  -22.8430 C   0  0  0  0  0  0
  -28.9679  -22.9132  -23.5831 C   0  0  0  0  0  0
  -29.1549  -22.8539  -24.8193 O   0  5  0  0  0  0
  -28.9801  -23.9495  -22.8755 O   0  0  0  0  0  0
  -29.4088  -20.9826  -21.9052 C   0  0  0  0  0  0
  -30.7863  -21.4891  -21.4900 C   0  0  0  0  0  0
  -31.8197  -20.6560  -22.1396 N   0  3  0  0  0  0
  -32.3337  -19.5757  -21.4979 C   0  0  0  0  0  0
  -33.2854  -18.7488  -22.1270 C   0  0  0  0  0  0
  -33.7130  -19.0627  -23.4308 C   0  0  0  0  0  0
  -33.1758  -20.1953  -24.0729 C   0  0  0  0  0  0
  -32.2187  -20.9797  -23.3963 C   0  0  0  0  0  0
  -29.0049  -19.6307  -21.3132 C   0  0  0  0  0  0
  -27.2451  -19.5539  -20.8710 S   0  0  0  0  0  0
  -25.9170  -18.7851  -23.4657 H   0  0  0  0  0  0
  -23.6952  -19.3813  -23.6172 H   0  0  0  0  0  0
  -21.7765  -22.3730  -23.6918 H   0  0  0  0  0  0
  -21.6662  -20.7379  -23.0736 H   0  0  0  0  0  0
  -21.7561  -22.6538  -26.4023 H   0  0  0  0  0  0
  -21.5697  -21.1588  -28.4874 H   0  0  0  0  0  0
  -21.7831  -18.5893  -27.9008 H   0  0  0  0  0  0
  -26.0205  -21.4170  -21.8287 H   0  0  0  0  0  0
  -30.9680  -22.5272  -21.7675 H   0  0  0  0  0  0
  -30.9131  -21.4321  -20.4135 H   0  0  0  0  0  0
  -31.9692  -19.3812  -20.5007 H   0  0  0  0  0  0
  -33.6743  -17.8815  -21.6140 H   0  0  0  0  0  0
  -34.4417  -18.4405  -23.9302 H   0  0  0  0  0  0
  -33.4898  -20.4547  -25.0730 H   0  0  0  0  0  0
  -31.7575  -21.8513  -23.8373 H   0  0  0  0  0  0
  -29.2271  -18.8429  -22.0341 H   0  0  0  0  0  0
  -29.5687  -19.4039  -20.4135 H   0  0  0  0  0  0
  1  2  2  0  0  0
  2 14  1  0  0  0
  2  3  1  0  0  0
  3  4  1  0  0  0
  3 13  1  0  0  0
  3 29  1  0  0  0
  4  5  1  0  0  0
  4 30  1  0  0  0
  5  6  1  0  0  0
  5 12  2  0  0  0
  6  7  1  0  0  0
  6 31  1  0  0  0
  6 32  1  0  0  0
  7 11  1  0  0  0
  7  8  2  0  0  0
  8  9  1  0  0  0
  8 33  1  0  0  0
  9 10  2  0  0  0
  9 34  1  0  0  0
 10 11  1  0  0  0
 10 35  1  0  0  0
 13 28  1  0  0  0
 13 14  1  0  0  0
 13 36  1  0  0  0
 14 15  1  0  0  0
 15 16  1  0  0  0
 15 19  2  0  0  0
 16 17  1  0  0  0
 16 18  2  0  0  0
 19 20  1  0  0  0
 19 27  1  0  0  0
 20 21  1  0  0  0
 20 37  1  0  0  0
 20 38  1  0  0  0
 21 26  1  0  0  0
 21 22  2  0  0  0
 22 23  1  0  0  0
 22 39  1  0  0  0
 23 24  2  0  0  0
 23 40  1  0  0  0
 24 25  1  0  0  0
 24 41  1  0  0  0
 25 26  2  0  0  0
 25 42  1  0  0  0
 26 43  1  0  0  0
 27 28  1  0  0  0
 27 44  1  0  0  0
 27 45  1  0  0  0
M  CHG  2  17  -1  21   1
M  END
> <s_m_entry_id>
27534

> <s_m_entry_name>
data_maestro.13

> <s_m_Source_Path>
C:\Users\olshana1\Git\GramNeg-Accumulation\Gram Negative Permeation - OmpF

> <s_m_Source_File>
data_maestro.csv

> <i_m_Source_File_Index>
13

> <s_m_job_name>
glide-dock_Nicaido_neutral

> <s_i_glide_gridfile>
3POX-grid

> <i_i_glide_lignum>
18

> <i_i_glide_rotatable_bonds>
7

> <r_i_docking_score>
-4.72048472843213

> <r_i_glide_ligand_efficiency>
-0.168588740301148

> <r_i_glide_ligand_efficiency_sa>
-0.511934709012251

> <r_i_glide_ligand_efficiency_ln>
-1.08962647477629

> <r_i_glide_gscore>
-4.72048472843213

> <r_i_glide_lipo>
-0.530727326767735

> <r_i_glide_hbond>
-0.587361400899339

> <r_i_glide_metal>
0

> <r_i_glide_rewards>
-0.572818733165717

> <r_i_glide_evdw>
-27.7475528717041

> <r_i_glide_ecoul>
-12.1705474853516

> <r_i_glide_erotb>
0.571951339556603

> <r_i_glide_esite>
-0.388568840768005

> <r_i_glide_emodel>
-61.172299960897

> <r_i_glide_energy>
-39.9181003570557

> <r_i_glide_einternal>
6.95648241043091

> <i_i_glide_confnum>
75

> <i_i_glide_posenum>
340

> <r_i_glide_eff_state_penalty>
0

> <r_glide_res:A132_vdw>
-0.961068326500941

> <r_glide_res:A132_coul>
-12.8517022527341

> <r_glide_res:A132_hbond>
0

> <r_glide_res:A132_dist>
3.0448360253643

> <r_glide_res:A132_Eint>
-13.812770579235

> <r_glide_res:A117_vdw>
-4.67498629305101

> <r_glide_res:A117_coul>
-1.86366049892645

> <r_glide_res:A117_hbond>
0

> <r_glide_res:A117_dist>
2.60290350656725

> <r_glide_res:A117_Eint>
-6.53864679197745

> <r_glide_res:A113_vdw>
-2.99243940499269

> <r_glide_res:A113_coul>
-18.9072303917626

> <r_glide_res:A113_hbond>
0

> <r_glide_res:A113_dist>
2.19493607787571

> <r_glide_res:A113_Eint>
-21.8996697967553

> <r_glide_res:A82_vdw>
-0.748240251434808

> <r_glide_res:A82_coul>
-27.0249352239763

> <r_glide_res:A82_hbond>
-0.24935449544859

> <r_glide_res:A82_dist>
1.9123902341311

> <r_glide_res:A82_Eint>
-28.0225299708597

> <r_glide_res:A42_vdw>
-0.992924192149337

> <r_glide_res:A42_coul>
-29.6195825726435

> <r_glide_res:A42_hbond>
-0.338006905450749

> <r_glide_res:A42_dist>
1.94605413734025

> <r_glide_res:A42_Eint>
-30.9505136702436

> <r_glide_res:A16_vdw>
-0.499255903397241

> <r_glide_res:A16_coul>
-7.20185575686324

> <r_glide_res:A16_hbond>
0

> <r_glide_res:A16_dist>
3.87979072756477

> <r_glide_res:A16_Eint>
-7.70111166026048

> <s_m_source_file>
ligprep_Nicaido_neutral.maegz

> <i_m_source_file_index>
13

> <i_lp_mmshare_version>
58128

> <i_f3d_flags>
0

> <s_lp_Force_Field>
S-OPLS

> <r_lp_Energy>
50.740529

> <b_lp_Chiralities_Consistent>
1

> <s_lp_Variant>
Cephaloridine-1

> <s_epik_input>
czFbY0hdW2NIXVtjSF1jMVtDSDJdQyg9TylbTkhdW0NASF0yQyg9TylOKFtDQEBIXTIzKUMoQyg9TylbT0hdKT1DKFtDSDJdUzMpW0NIMl1bbitdNFtjSF1bY0hdW2NIXVtjSF1bY0hdNA==

> <s_epik_cmdline>
J2VwaWtfcHl0aG9uJywgJy1waHQnLCAnMC4wJywgJy1waCcsICc3LjQnLCAnLW50JywgJy1tYScsICc1MDAnLCAnLWltYWUnLCAnPGluZmlsZS5tYWU+JywgJy1vbWFlJywgJzxvdXRmaWxlLm1hZT4n

> <r_lp_tautomer_probability>
1

> <r_epik_Ionization_Penalty>
  0.0000

> <r_epik_Ionization_Penalty_Charging>
  0.0000

> <r_epik_Ionization_Penalty_Neutral>
  0.0000

> <r_epik_State_Penalty>
  0.0000

> <r_epik_Charging_Adjusted_Penalty>
1.62498989321064e-05

> <i_epik_Tot_Q>
0

> <i_epik_Tot_abs_Q>
2

> <s_epik_Chemistry_Notes>
This compound contains an acetal/aminal-like group ( X-CH(R)-Y where X, Y are N, S, or O) that may be acid/base labile, releasing an aldehyde.

> <s_m_subgroup_title>
glide-dock_Nicaido_neutral_pv1

> <s_m_subgroupid>
glide-dock_Nicaido_neutral_pv1

> <b_m_subgroup_collapsed>
0

$$$$
Ceftizoxime
                    3D
 Schrodinger Suite 2022-2.
 37 39  0  0  1  0            999 V2000
  -29.2502  -25.0768  -17.6138 C   0  0  0  0  0  0
  -28.5802  -24.3688  -18.6369 O   0  0  0  0  0  0
  -27.5805  -23.6088  -18.0136 N   0  0  0  0  0  0
  -27.1884  -22.5880  -18.6722 C   0  0  0  0  0  0
  -26.0576  -21.7702  -18.1601 C   0  0  0  0  0  0
  -25.1287  -22.3095  -17.2956 C   0  0  0  0  0  0
  -23.9235  -21.1500  -16.8120 S   0  0  0  0  0  0
  -24.7709  -19.9388  -17.7588 C   0  0  0  0  0  0
  -24.3684  -18.6170  -17.7903 N   0  0  0  0  0  0
  -25.8258  -20.4128  -18.4170 N   0  0  0  0  0  0
  -27.7444  -22.1214  -20.0035 C   0  0  0  0  0  0
  -29.0889  -22.0461  -20.0134 N   0  0  0  0  0  0
  -30.0052  -21.7686  -21.1201 C   0  0  1  0  0  0
  -29.7265  -20.4545  -21.8735 C   0  0  1  0  0  0
  -29.7445  -21.2522  -23.0912 N   0  0  0  0  0  0
  -29.6599  -22.4802  -22.4479 C   0  0  0  0  0  0
  -29.3991  -23.6102  -22.8138 O   0  0  0  0  0  0
  -29.6030  -20.6606  -24.3578 C   0  0  0  0  0  0
  -29.0438  -21.5503  -25.5086 C   0  0  0  0  0  0
  -29.5690  -21.4271  -26.6371 O   0  5  0  0  0  0
  -28.1274  -22.3494  -25.2132 O   0  0  0  0  0  0
  -29.8675  -19.3519  -24.5699 C   0  0  0  0  0  0
  -30.3715  -18.3591  -23.5305 C   0  0  0  0  0  0
  -30.9945  -19.1515  -22.0221 S   0  0  0  0  0  0
  -27.0126  -21.8953  -20.9681 O   0  0  0  0  0  0
  -30.1447  -25.5472  -18.0133 H   0  0  0  0  0  0
  -28.6118  -25.8460  -17.1768 H   0  0  0  0  0  0
  -29.5687  -24.3990  -16.8224 H   0  0  0  0  0  0
  -25.0916  -23.3159  -16.9044 H   0  0  0  0  0  0
  -25.0626  -17.9465  -18.0942 H   0  0  0  0  0  0
  -23.7549  -18.2825  -17.0602 H   0  0  0  0  0  0
  -29.5627  -22.1993  -19.1269 H   0  0  0  0  0  0
  -31.0524  -21.8523  -20.8260 H   0  0  0  0  0  0
  -28.7388  -20.0225  -21.6988 H   0  0  0  0  0  0
  -29.6913  -18.9337  -25.5506 H   0  0  0  0  0  0
  -29.5622  -17.6804  -23.2656 H   0  0  0  0  0  0
  -31.1679  -17.7503  -23.9589 H   0  0  0  0  0  0
  1  2  1  0  0  0
  1 26  1  0  0  0
  1 27  1  0  0  0
  1 28  1  0  0  0
  2  3  1  0  0  0
  3  4  2  3  0  0
  4  5  1  0  0  0
  4 11  1  0  0  0
  5 10  1  0  0  0
  5  6  2  0  0  0
  6  7  1  0  0  0
  6 29  1  0  0  0
  7  8  1  0  0  0
  8  9  1  0  0  0
  8 10  2  0  0  0
  9 30  1  0  0  0
  9 31  1  0  0  0
 11 12  1  0  0  0
 11 25  2  0  0  0
 12 13  1  0  0  0
 12 32  1  0  0  0
 13 16  1  0  0  0
 13 14  1  0  0  0
 13 33  1  0  0  0
 14 24  1  0  0  0
 14 15  1  0  0  0
 14 34  1  0  0  0
 15 16  1  0  0  0
 15 18  1  0  0  0
 16 17  2  0  0  0
 18 19  1  0  0  0
 18 22  2  0  0  0
 19 20  1  0  0  0
 19 21  2  0  0  0
 22 23  1  0  0  0
 22 35  1  0  0  0
 23 24  1  0  0  0
 23 36  1  0  0  0
 23 37  1  0  0  0
M  CHG  1  20  -1
M  END
> <s_m_entry_id>
27535

> <s_m_entry_name>
data_maestro.5

> <s_m_Source_Path>
C:\Users\olshana1\Git\GramNeg-Accumulation\Gram Negative Permeation - OmpF

> <s_m_Source_File>
data_maestro.csv

> <i_m_Source_File_Index>
5

> <s_m_job_name>
glide-dock_Nicaido_neutral

> <s_i_glide_gridfile>
3POX-grid

> <i_i_glide_lignum>
6

> <i_i_glide_rotatable_bonds>
6

> <r_i_docking_score>
-4.71948228352214

> <r_i_glide_ligand_efficiency>
-0.188779291340885

> <r_i_glide_ligand_efficiency_sa>
-0.551993995895737

> <r_i_glide_ligand_efficiency_ln>
-1.11865873266596

> <r_i_glide_gscore>
-4.71948228352214

> <r_i_glide_lipo>
0

> <r_i_glide_hbond>
-0.838475832409071

> <r_i_glide_metal>
0

> <r_i_glide_rewards>
-0.732923210634457

> <r_i_glide_evdw>
-30.7266120910645

> <r_i_glide_ecoul>
-10.5942440032959

> <r_i_glide_erotb>
0.664075194683877

> <r_i_glide_esite>
-0.686691230114877

> <r_i_glide_emodel>
-58.9647468150452

> <r_i_glide_energy>
-41.3208560943604

> <r_i_glide_einternal>
9.80539035797119

> <i_i_glide_confnum>
7

> <i_i_glide_posenum>
298

> <r_i_glide_eff_state_penalty>
0

> <r_glide_res:A132_vdw>
-2.14089232458447

> <r_glide_res:A132_coul>
-27.848247289929

> <r_glide_res:A132_hbond>
0

> <r_glide_res:A132_dist>
2.31368805761605

> <r_glide_res:A132_Eint>
-29.9891396145134

> <r_glide_res:A117_vdw>
-2.66041866040464

> <r_glide_res:A117_coul>
27.5858156116593

> <r_glide_res:A117_hbond>
0

> <r_glide_res:A117_dist>
2.53415291794618

> <r_glide_res:A117_Eint>
24.9253969512547

> <r_glide_res:A113_vdw>
-3.32202055295019

> <r_glide_res:A113_coul>
12.65547754531

> <r_glide_res:A113_hbond>
-0.1447736880181

> <r_glide_res:A113_dist>
1.95870141945781

> <r_glide_res:A113_Eint>
9.1886833043417

> <r_glide_res:A82_vdw>
-1.56740312993644

> <r_glide_res:A82_coul>
-40.079105608528

> <r_glide_res:A82_hbond>
-0.12550745410305

> <r_glide_res:A82_dist>
2.18623136474237

> <r_glide_res:A82_Eint>
-41.7720161925675

> <r_glide_res:A42_vdw>
2.40544742859202

> <r_glide_res:A42_coul>
-55.5947654063265

> <r_glide_res:A42_hbond>
-0.36819469028792

> <r_glide_res:A42_dist>
1.71925401100048

> <r_glide_res:A42_Eint>
-53.5575126680224

> <r_glide_res:A16_vdw>
1.53297961117586

> <r_glide_res:A16_coul>
-50.859986953904

> <r_glide_res:A16_hbond>
-0.2

> <r_glide_res:A16_dist>
1.67100382328495

> <r_glide_res:A16_Eint>
-49.5270073427281

> <s_m_source_file>
ligprep_Nicaido_neutral.maegz

> <i_m_source_file_index>
5

> <i_lp_mmshare_version>
58128

> <i_f3d_flags>
0

> <s_lp_Force_Field>
S-OPLS

> <r_lp_Energy>
52.500132

> <b_lp_Chiralities_Consistent>
1

> <s_lp_Variant>
Ceftizoxime-2

> <s_epik_input>
W05IMl1jKG4xKXNbY0hdYzEvQyg9TlxPW0NIM10pQyg9TylbTkhdW0NAQEhdMkMoPU8pTihbQ0BIXTIzKUMoQyg9TylbT0hdKT1bQ0hdW0NIMl1TMw==

> <s_epik_cmdline>
J2VwaWtfcHl0aG9uJywgJy1waHQnLCAnMC4wJywgJy1waCcsICc3LjQnLCAnLW50JywgJy1tYScsICc1MDAnLCAnLWltYWUnLCAnPGluZmlsZS5tYWU+JywgJy1vbWFlJywgJzxvdXRmaWxlLm1hZT4n

> <r_lp_tautomer_probability>
1

> <r_epik_Ionization_Penalty>
  0.0005

> <r_epik_Ionization_Penalty_Charging>
  0.0000

> <r_epik_Ionization_Penalty_Neutral>
  0.0005

> <r_epik_State_Penalty>
  0.0000

> <r_epik_Charging_Adjusted_Penalty>
4.86746471452517e-05

> <i_epik_Tot_Q>
-1

> <i_epik_Tot_abs_Q>
1

> <s_epik_Chemistry_Notes>
This compound has an imine and may undergo hydrolysis. This compound contains an acetal/aminal-like group ( X-CH(R)-Y where X, Y are N, S, or O) that may be acid/base labile, releasing an aldehyde.

> <s_m_subgroup_title>
glide-dock_Nicaido_neutral_pv1

> <s_m_subgroupid>
glide-dock_Nicaido_neutral_pv1

> <b_m_subgroup_collapsed>
0

$$$$
Ceftizoxime
                    3D
 Schrodinger Suite 2022-2.
 37 39  0  0  1  0            999 V2000
  -23.6185  -24.7501  -17.5767 C   0  0  0  0  0  0
  -24.0294  -23.5572  -18.2103 O   0  0  0  0  0  0
  -25.3025  -23.7816  -18.7499 N   0  0  0  0  0  0
  -25.8473  -22.7297  -19.2264 C   0  0  0  0  0  0
  -25.1756  -21.3927  -19.3235 C   0  0  0  0  0  0
  -23.9380  -21.2547  -19.9144 C   0  0  0  0  0  0
  -23.3802  -19.6013  -19.9131 S   0  0  0  0  0  0
  -24.8736  -19.1470  -19.1168 C   0  0  0  0  0  0
  -25.1689  -17.8373  -18.8029 N   0  0  0  0  0  0
  -25.6935  -20.1695  -18.8797 N   0  0  0  0  0  0
  -27.2439  -22.8439  -19.8233 C   0  0  0  0  0  0
  -27.8199  -21.6789  -20.1727 N   0  0  0  0  0  0
  -29.0881  -21.5021  -20.8867 C   0  0  1  0  0  0
  -29.0516  -20.2355  -21.7731 C   0  0  1  0  0  0
  -29.3878  -21.0917  -22.8949 N   0  0  0  0  0  0
  -29.1898  -22.2872  -22.2240 C   0  0  0  0  0  0
  -29.1205  -23.4428  -22.5952 O   0  0  0  0  0  0
  -29.5577  -20.5805  -24.1927 C   0  0  0  0  0  0
  -29.2730  -21.5487  -25.3787 C   0  0  0  0  0  0
  -29.9688  -21.4258  -26.4133 O   0  5  0  0  0  0
  -28.3269  -22.3500  -25.2134 O   0  0  0  0  0  0
  -29.8517  -19.2818  -24.4185 C   0  0  0  0  0  0
  -30.0564  -18.2190  -23.3510 C   0  0  0  0  0  0
  -30.2978  -18.9058  -21.6869 S   0  0  0  0  0  0
  -27.7646  -23.9495  -20.0049 O   0  0  0  0  0  0
  -22.6580  -24.5909  -17.0878 H   0  0  0  0  0  0
  -24.3407  -25.0557  -16.8162 H   0  0  0  0  0  0
  -23.5023  -25.5566  -18.3014 H   0  0  0  0  0  0
  -23.3163  -22.0287  -20.3380 H   0  0  0  0  0  0
  -26.0140  -17.6851  -18.2544 H   0  0  0  0  0  0
  -24.4261  -17.1692  -18.6568 H   0  0  0  0  0  0
  -27.3392  -20.8268  -19.9059 H   0  0  0  0  0  0
  -29.9691  -21.5508  -20.2488 H   0  0  0  0  0  0
  -28.0497  -19.8171  -21.8989 H   0  0  0  0  0  0
  -29.9104  -18.9233  -25.4366 H   0  0  0  0  0  0
  -29.1760  -17.5774  -23.3514 H   0  0  0  0  0  0
  -30.9133  -17.5944  -23.6045 H   0  0  0  0  0  0
  1  2  1  0  0  0
  1 26  1  0  0  0
  1 27  1  0  0  0
  1 28  1  0  0  0
  2  3  1  0  0  0
  3  4  2  3  0  0
  4  5  1  0  0  0
  4 11  1  0  0  0
  5 10  1  0  0  0
  5  6  2  0  0  0
  6  7  1  0  0  0
  6 29  1  0  0  0
  7  8  1  0  0  0
  8  9  1  0  0  0
  8 10  2  0  0  0
  9 30  1  0  0  0
  9 31  1  0  0  0
 11 12  1  0  0  0
 11 25  2  0  0  0
 12 13  1  0  0  0
 12 32  1  0  0  0
 13 16  1  0  0  0
 13 14  1  0  0  0
 13 33  1  0  0  0
 14 24  1  0  0  0
 14 15  1  0  0  0
 14 34  1  0  0  0
 15 16  1  0  0  0
 15 18  1  0  0  0
 16 17  2  0  0  0
 18 19  1  0  0  0
 18 22  2  0  0  0
 19 20  1  0  0  0
 19 21  2  0  0  0
 22 23  1  0  0  0
 22 35  1  0  0  0
 23 24  1  0  0  0
 23 36  1  0  0  0
 23 37  1  0  0  0
M  CHG  1  20  -1
M  END
> <s_m_entry_id>
27536

> <s_m_entry_name>
data_maestro.5

> <s_m_Source_Path>
C:\Users\olshana1\Git\GramNeg-Accumulation\Gram Negative Permeation - OmpF

> <s_m_Source_File>
data_maestro.csv

> <i_m_Source_File_Index>
5

> <s_m_job_name>
glide-dock_Nicaido_neutral

> <s_i_glide_gridfile>
3POX-grid

> <i_i_glide_lignum>
5

> <i_i_glide_rotatable_bonds>
6

> <r_i_docking_score>
-4.71750819059576

> <r_i_glide_ligand_efficiency>
-0.18870032762383

> <r_i_glide_ligand_efficiency_sa>
-0.55176310458664

> <r_i_glide_ligand_efficiency_ln>
-1.11819081348362

> <r_i_glide_gscore>
-4.71750819059576

> <r_i_glide_lipo>
0

> <r_i_glide_hbond>
-1.04878014923439

> <r_i_glide_metal>
0

> <r_i_glide_rewards>
-0.801013824825501

> <r_i_glide_evdw>
-26.1650905609131

> <r_i_glide_ecoul>
-10.8723039627075

> <r_i_glide_erotb>
0.664075194683877

> <r_i_glide_esite>
-0.592689288767963

> <r_i_glide_emodel>
-58.1633004203064

> <r_i_glide_energy>
-37.0373945236206

> <r_i_glide_einternal>
3.25096750259399

> <i_i_glide_confnum>
46

> <i_i_glide_posenum>
244

> <r_i_glide_eff_state_penalty>
0

> <r_glide_res:A132_vdw>
-1.4713581116744

> <r_glide_res:A132_coul>
-33.3625677969509

> <r_glide_res:A132_hbond>
-0.16

> <r_glide_res:A132_dist>
1.87569704196122

> <r_glide_res:A132_Eint>
-34.9939259086253

> <r_glide_res:A117_vdw>
-2.84456252027983

> <r_glide_res:A117_coul>
23.0777495242554

> <r_glide_res:A117_hbond>
0

> <r_glide_res:A117_dist>
2.22757234581186

> <r_glide_res:A117_Eint>
20.2331870039756

> <r_glide_res:A113_vdw>
-3.15110620369917

> <r_glide_res:A113_coul>
20.8279705964631

> <r_glide_res:A113_hbond>
0

> <r_glide_res:A113_dist>
2.48452077820951

> <r_glide_res:A113_Eint>
17.676864392764

> <r_glide_res:A82_vdw>
-1.69091782232346

> <r_glide_res:A82_coul>
-38.9580459506108

> <r_glide_res:A82_hbond>
-0.0212842240456176

> <r_glide_res:A82_dist>
2.44678943988596

> <r_glide_res:A82_Eint>
-40.6702479969799

> <r_glide_res:A42_vdw>
0.654476676223965

> <r_glide_res:A42_coul>
-51.701462003295

> <r_glide_res:A42_hbond>
-0.347495925188769

> <r_glide_res:A42_dist>
1.8723474879258

> <r_glide_res:A42_Eint>
-51.3944812522598

> <r_glide_res:A16_vdw>
0.883319409552282

> <r_glide_res:A16_coul>
-48.5490274840289

> <r_glide_res:A16_hbond>
-0.2

> <r_glide_res:A16_dist>
1.75681651348926

> <r_glide_res:A16_Eint>
-47.8657080744766

> <s_m_source_file>
ligprep_Nicaido_neutral.maegz

> <i_m_source_file_index>
5

> <i_lp_mmshare_version>
58128

> <i_f3d_flags>
0

> <s_lp_Force_Field>
S-OPLS

> <r_lp_Energy>
52.616387

> <b_lp_Chiralities_Consistent>
1

> <s_lp_Variant>
Ceftizoxime-1

> <s_epik_input>
W05IMl1jKG4xKXNbY0hdYzEvQyg9TlxPW0NIM10pQyg9TylbTkhdW0NAQEhdMkMoPU8pTihbQ0BIXTIzKUMoQyg9TylbT0hdKT1bQ0hdW0NIMl1TMw==

> <s_epik_cmdline>
J2VwaWtfcHl0aG9uJywgJy1waHQnLCAnMC4wJywgJy1waCcsICc3LjQnLCAnLW50JywgJy1tYScsICc1MDAnLCAnLWltYWUnLCAnPGluZmlsZS5tYWU+JywgJy1vbWFlJywgJzxvdXRmaWxlLm1hZT4n

> <r_lp_tautomer_probability>
1

> <r_epik_Ionization_Penalty>
  0.0005

> <r_epik_Ionization_Penalty_Charging>
  0.0000

> <r_epik_Ionization_Penalty_Neutral>
  0.0005

> <r_epik_State_Penalty>
  0.0000

> <r_epik_Charging_Adjusted_Penalty>
4.86746471452517e-05

> <i_epik_Tot_Q>
-1

> <i_epik_Tot_abs_Q>
1

> <s_epik_Chemistry_Notes>
This compound has an imine and may undergo hydrolysis. This compound contains an acetal/aminal-like group ( X-CH(R)-Y where X, Y are N, S, or O) that may be acid/base labile, releasing an aldehyde.

> <s_m_subgroup_title>
glide-dock_Nicaido_neutral_pv1

> <s_m_subgroupid>
glide-dock_Nicaido_neutral_pv1

> <b_m_subgroup_collapsed>
0

$$$$
Cephalexin
                    3D
 Schrodinger Suite 2022-2.
 40 42  0  0  1  0            999 V2000
  -31.2968  -22.4479  -21.2381 C   0  0  0  0  0  0
  -30.2551  -21.5660  -21.9139 C   0  0  0  0  0  0
  -29.1739  -22.0146  -22.5994 C   0  0  0  0  0  0
  -28.3374  -21.0588  -23.1969 N   0  0  0  0  0  0
  -27.8012  -19.9540  -22.4135 C   0  0  1  0  0  0
  -27.1555  -19.4723  -23.7356 C   0  0  2  0  0  0
  -27.4816  -20.8739  -24.2636 C   0  0  0  0  0  0
  -27.1684  -21.5517  -25.2134 O   0  0  0  0  0  0
  -25.7172  -19.1498  -23.7028 N   0  0  0  0  0  0
  -24.6989  -19.8685  -23.1976 C   0  0  0  0  0  0
  -23.2783  -19.3169  -23.4275 C   0  0  2  0  0  0
  -22.8161  -19.9418  -24.7067 C   0  0  0  0  0  0
  -22.6006  -19.1502  -25.8601 C   0  0  0  0  0  0
  -22.1751  -19.7164  -27.0757 C   0  0  0  0  0  0
  -21.9680  -21.1028  -27.1674 C   0  0  0  0  0  0
  -22.1554  -21.9115  -26.0344 C   0  0  0  0  0  0
  -22.5648  -21.3322  -24.8184 C   0  0  0  0  0  0
  -22.3919  -19.6257  -22.3059 N   0  0  0  0  0  0
  -24.8505  -20.9226  -22.5776 O   0  0  0  0  0  0
  -29.1689  -19.0389  -21.6004 S   0  0  0  0  0  0
  -30.6074  -20.0868  -21.9448 C   0  0  0  0  0  0
  -28.7844  -23.5288  -22.7489 C   0  0  0  0  0  0
  -27.5689  -23.8279  -22.8132 O   0  5  0  0  0  0
  -29.7221  -24.3496  -22.8132 O   0  0  0  0  0  0
  -31.7753  -21.9203  -20.4138 H   0  0  0  0  0  0
  -32.0716  -22.7300  -21.9515 H   0  0  0  0  0  0
  -30.8610  -23.3513  -20.8136 H   0  0  0  0  0  0
  -27.0989  -20.3177  -21.6623 H   0  0  0  0  0  0
  -27.7436  -18.6842  -24.2074 H   0  0  0  0  0  0
  -25.4579  -18.2942  -24.1874 H   0  0  0  0  0  0
  -23.3351  -18.2321  -23.5237 H   0  0  0  0  0  0
  -22.7684  -18.0842  -25.8185 H   0  0  0  0  0  0
  -22.0200  -19.0895  -27.9422 H   0  0  0  0  0  0
  -21.6581  -21.5441  -28.1034 H   0  0  0  0  0  0
  -21.9851  -22.9755  -26.1015 H   0  0  0  0  0  0
  -22.7031  -21.9647  -23.9533 H   0  0  0  0  0  0
  -22.0608  -18.7777  -21.8680 H   0  0  0  0  0  0
  -22.9124  -20.1189  -21.5927 H   0  0  0  0  0  0
  -31.0127  -19.8410  -22.9266 H   0  0  0  0  0  0
  -31.3794  -19.8460  -21.2132 H   0  0  0  0  0  0
  1  2  1  0  0  0
  1 25  1  0  0  0
  1 26  1  0  0  0
  1 27  1  0  0  0
  2 21  1  0  0  0
  2  3  2  0  0  0
  3  4  1  0  0  0
  3 22  1  0  0  0
  4  7  1  0  0  0
  4  5  1  0  0  0
  5  6  1  0  0  0
  5 20  1  0  0  0
  5 28  1  0  0  0
  6  7  1  0  0  0
  6  9  1  0  0  0
  6 29  1  0  0  0
  7  8  2  0  0  0
  9 10  1  0  0  0
  9 30  1  0  0  0
 10 11  1  0  0  0
 10 19  2  0  0  0
 11 12  1  0  0  0
 11 18  1  0  0  0
 11 31  1  0  0  0
 12 17  1  0  0  0
 12 13  2  0  0  0
 13 14  1  0  0  0
 13 32  1  0  0  0
 14 15  2  0  0  0
 14 33  1  0  0  0
 15 16  1  0  0  0
 15 34  1  0  0  0
 16 17  2  0  0  0
 16 35  1  0  0  0
 17 36  1  0  0  0
 18 37  1  0  0  0
 18 38  1  0  0  0
 20 21  1  0  0  0
 21 39  1  0  0  0
 21 40  1  0  0  0
 22 23  1  0  0  0
 22 24  2  0  0  0
M  CHG  1  23  -1
M  END
> <s_m_entry_id>
27537

> <s_m_entry_name>
data_maestro.14

> <s_m_Source_Path>
C:\Users\olshana1\Git\GramNeg-Accumulation\Gram Negative Permeation - OmpF

> <s_m_Source_File>
data_maestro.csv

> <i_m_Source_File_Index>
14

> <s_m_job_name>
glide-dock_Nicaido_neutral

> <s_i_glide_gridfile>
3POX-grid

> <i_i_glide_lignum>
19

> <i_i_glide_rotatable_bonds>
5

> <r_i_docking_score>
-4.71047497858531

> <r_i_glide_ligand_efficiency>
-0.196269790774388

> <r_i_glide_ligand_efficiency_sa>
-0.566140042217631

> <r_i_glide_ligand_efficiency_ln>
-1.12743281198774

> <r_i_glide_gscore>
-4.82567497858531

> <r_i_glide_lipo>
-0.326759072422323

> <r_i_glide_hbond>
-0.682999867200544

> <r_i_glide_metal>
0

> <r_i_glide_rewards>
-1.04707679547462

> <r_i_glide_evdw>
-21.7620182037354

> <r_i_glide_ecoul>
-11.8080968856812

> <r_i_glide_erotb>
0.475363118437828

> <r_i_glide_esite>
-0.384886918886716

> <r_i_glide_emodel>
-53.5935856645323

> <r_i_glide_energy>
-33.5701150894165

> <r_i_glide_einternal>
4.18114900588989

> <i_i_glide_confnum>
16

> <i_i_glide_posenum>
85

> <r_i_glide_eff_state_penalty>
0.1152

> <r_glide_res:A132_vdw>
-1.49458679081256

> <r_glide_res:A132_coul>
-38.6703187515777

> <r_glide_res:A132_hbond>
0

> <r_glide_res:A132_dist>
3.04891708360385

> <r_glide_res:A132_Eint>
-40.1649055423902

> <r_glide_res:A117_vdw>
-3.81845470198554

> <r_glide_res:A117_coul>
7.90329697204042

> <r_glide_res:A117_hbond>
-0.16

> <r_glide_res:A117_dist>
2.05639926589449

> <r_glide_res:A117_Eint>
3.92484227005489

> <r_glide_res:A113_vdw>
-2.41821733227563

> <r_glide_res:A113_coul>
27.270133691179

> <r_glide_res:A113_hbond>
0

> <r_glide_res:A113_dist>
2.32919863562254

> <r_glide_res:A113_Eint>
24.8519163589033

> <r_glide_res:A82_vdw>
7.76927641133635

> <r_glide_res:A82_coul>
-61.4376415128973

> <r_glide_res:A82_hbond>
-0.362999867200544

> <r_glide_res:A82_dist>
1.52599973440109

> <r_glide_res:A82_Eint>
-54.0313649687615

> <r_glide_res:A42_vdw>
-0.210774497512684

> <r_glide_res:A42_coul>
-41.3508851432728

> <r_glide_res:A42_hbond>
-0.16

> <r_glide_res:A42_dist>
1.76227870290415

> <r_glide_res:A42_Eint>
-41.7216596407855

> <r_glide_res:A16_vdw>
-0.328321625518463

> <r_glide_res:A16_coul>
-23.2203690868334

> <r_glide_res:A16_hbond>
0

> <r_glide_res:A16_dist>
4.28479848418748

> <r_glide_res:A16_Eint>
-23.5486907123519

> <s_m_source_file>
ligprep_Nicaido_neutral.maegz

> <i_m_source_file_index>
14

> <i_lp_mmshare_version>
58128

> <i_f3d_flags>
0

> <s_lp_Force_Field>
S-OPLS

> <r_lp_Energy>
47.820483

> <b_lp_Chiralities_Consistent>
1

> <s_lp_Variant>
Cephalexin-1

> <s_epik_input>
W09IXUMoPU8pQzE9QyhbQ0gzXSlbQ0gyXVNbQ0BASF0oTjEyKVtDQEhdKEMyPU8pW05IXUMoPU8pW0NAQEhdKFtOSDJdKWMzW2NIXVtjSF1bY0hdW2NIXVtjSF0z

> <s_epik_cmdline>
J2VwaWtfcHl0aG9uJywgJy1waHQnLCAnMC4wJywgJy1waCcsICc3LjQnLCAnLW50JywgJy1tYScsICc1MDAnLCAnLWltYWUnLCAnPGluZmlsZS5tYWU+JywgJy1vbWFlJywgJzxvdXRmaWxlLm1hZT4n

> <r_epik_Ionization_Penalty>
  0.1152

> <r_epik_Ionization_Penalty_Charging>
  0.0000

> <r_epik_Ionization_Penalty_Neutral>
  0.1152

> <r_epik_State_Penalty>
  0.1152

> <r_epik_Charging_Adjusted_Penalty>
0.115182589938214

> <i_epik_Tot_Q>
-1

> <i_epik_Tot_abs_Q>
1

> <s_epik_Chemistry_Notes>
This compound contains an acetal/aminal-like group ( X-CH(R)-Y where X, Y are N, S, or O) that may be acid/base labile, releasing an aldehyde.

> <s_m_subgroup_title>
glide-dock_Nicaido_neutral_pv1

> <s_m_subgroupid>
glide-dock_Nicaido_neutral_pv1

> <b_m_subgroup_collapsed>
0

$$$$
Cephalosporin C
                    3D
 Schrodinger Suite 2022-2.
 45 46  0  0  1  0            999 V2000
  -22.2259  -19.7257  -27.2114 O   0  0  0  0  0  0
  -21.5688  -20.7487  -27.0258 C   0  0  0  0  0  0
  -22.0359  -21.9189  -26.5531 O   0  0  0  0  0  0
  -23.4055  -22.0796  -26.2126 C   0  0  0  0  0  0
  -23.6179  -21.8877  -24.7139 C   0  0  0  0  0  0
  -23.6667  -22.9081  -23.8088 C   0  0  0  0  0  0
  -23.6919  -22.6493  -22.4209 N   0  0  0  0  0  0
  -23.3339  -21.3615  -21.8575 C   0  0  2  0  0  0
  -23.6228  -21.9419  -20.4620 C   0  0  2  0  0  0
  -23.9912  -23.2510  -21.2082 C   0  0  0  0  0  0
  -24.4128  -24.3495  -20.9181 O   0  0  0  0  0  0
  -24.7542  -21.2800  -19.8218 N   0  0  0  0  0  0
  -25.3169  -21.6601  -18.6671 C   0  0  0  0  0  0
  -26.6261  -20.9587  -18.2976 C   0  0  0  0  0  0
  -27.8762  -21.7713  -18.7036 C   0  0  0  0  0  0
  -27.8966  -22.1855  -20.1931 C   0  0  0  0  0  0
  -29.2147  -22.8609  -20.6401 C   0  0  2  0  0  0
  -29.0875  -23.6987  -21.9341 C   0  0  0  0  0  0
  -30.1431  -24.1661  -22.4130 O   0  5  0  0  0  0
  -27.9580  -23.9493  -22.4127 O   0  0  0  0  0  0
  -30.2842  -21.8623  -20.8134 N   0  3  0  0  0  0
  -24.8566  -22.5506  -17.9535 O   0  0  0  0  0  0
  -24.3587  -20.1054  -22.6683 S   0  0  0  0  0  0
  -23.7231  -20.4060  -24.3358 C   0  0  0  0  0  0
  -23.5970  -24.4314  -24.2194 C   0  0  0  0  0  0
  -22.7690  -25.1478  -23.6116 O   0  5  0  0  0  0
  -24.3689  -24.8236  -25.1225 O   0  0  0  0  0  0
  -20.5016  -20.8436  -27.2235 H   0  0  0  0  0  0
  -23.6983  -23.0733  -26.5390 H   0  0  0  0  0  0
  -24.0451  -21.3932  -26.7702 H   0  0  0  0  0  0
  -22.2731  -21.1523  -22.0080 H   0  0  0  0  0  0
  -22.7293  -21.9978  -19.8388 H   0  0  0  0  0  0
  -25.1993  -20.5429  -20.3511 H   0  0  0  0  0  0
  -26.6588  -19.9735  -18.7659 H   0  0  0  0  0  0
  -26.6304  -20.7800  -17.2210 H   0  0  0  0  0  0
  -28.7634  -21.1771  -18.4751 H   0  0  0  0  0  0
  -27.9463  -22.6614  -18.0766 H   0  0  0  0  0  0
  -27.0660  -22.8741  -20.3457 H   0  0  0  0  0  0
  -27.6926  -21.3193  -20.8250 H   0  0  0  0  0  0
  -29.5401  -23.5476  -19.8570 H   0  0  0  0  0  0
  -31.1119  -22.3368  -21.1438 H   0  0  0  0  0  0
  -30.4814  -21.4244  -19.9158 H   0  0  0  0  0  0
  -22.7359  -19.9514  -24.4134 H   0  0  0  0  0  0
  -24.3705  -19.8822  -25.0402 H   0  0  0  0  0  0
  -29.9995  -21.1618  -21.4806 H   0  0  0  0  0  0
  1  2  2  0  0  0
  2  3  1  0  0  0
  2 28  1  0  0  0
  3  4  1  0  0  0
  4  5  1  0  0  0
  4 29  1  0  0  0
  4 30  1  0  0  0
  5 24  1  0  0  0
  5  6  2  0  0  0
  6  7  1  0  0  0
  6 25  1  0  0  0
  7 10  1  0  0  0
  7  8  1  0  0  0
  8  9  1  0  0  0
  8 23  1  0  0  0
  8 31  1  0  0  0
  9 10  1  0  0  0
  9 12  1  0  0  0
  9 32  1  0  0  0
 10 11  2  0  0  0
 12 13  1  0  0  0
 12 33  1  0  0  0
 13 14  1  0  0  0
 13 22  2  0  0  0
 14 15  1  0  0  0
 14 34  1  0  0  0
 14 35  1  0  0  0
 15 16  1  0  0  0
 15 36  1  0  0  0
 15 37  1  0  0  0
 16 17  1  0  0  0
 16 38  1  0  0  0
 16 39  1  0  0  0
 17 18  1  0  0  0
 17 21  1  0  0  0
 17 40  1  0  0  0
 18 19  1  0  0  0
 18 20  2  0  0  0
 21 41  1  0  0  0
 21 42  1  0  0  0
 21 45  1  0  0  0
 23 24  1  0  0  0
 24 43  1  0  0  0
 24 44  1  0  0  0
 25 26  1  0  0  0
 25 27  2  0  0  0
M  CHG  3  19  -1  21   1  26  -1
M  END
> <s_m_entry_id>
27538

> <s_m_entry_name>
data_maestro.25

> <s_m_Source_Path>
C:\Users\olshana1\Git\GramNeg-Accumulation\Gram Negative Permeation - OmpF

> <s_m_Source_File>
data_maestro.csv

> <i_m_Source_File_Index>
25

> <s_m_job_name>
glide-dock_Nicaido_neutral

> <s_i_glide_gridfile>
3POX-grid

> <i_i_glide_lignum>
32

> <i_i_glide_rotatable_bonds>
11

> <r_i_docking_score>
-4.70983338912233

> <r_i_glide_ligand_efficiency>
-0.174438273671197

> <r_i_glide_ligand_efficiency_sa>
-0.523314820438672

> <r_i_glide_ligand_efficiency_ln>
-1.09637156531576

> <r_i_glide_gscore>
-4.70983338912233

> <r_i_glide_lipo>
0

> <r_i_glide_hbond>
-1.10320730207609

> <r_i_glide_metal>
0

> <r_i_glide_rewards>
-0.997379674287926

> <r_i_glide_evdw>
-22.267053604126

> <r_i_glide_ecoul>
-13.8182687759399

> <r_i_glide_erotb>
0.97830559423054

> <r_i_glide_esite>
-0.401459010391558

> <r_i_glide_emodel>
-63.3807281436084

> <r_i_glide_energy>
-36.0853223800659

> <r_i_glide_einternal>
6.91878604888916

> <i_i_glide_confnum>
333

> <i_i_glide_posenum>
263

> <r_i_glide_eff_state_penalty>
0

> <r_glide_res:A132_vdw>
-1.46968574112457

> <r_glide_res:A132_coul>
-46.9520650568892

> <r_glide_res:A132_hbond>
-0.105754795595273

> <r_glide_res:A132_dist>
2.06367539663241

> <r_glide_res:A132_Eint>
-48.5275055936091

> <r_glide_res:A117_vdw>
-1.77926174273528

> <r_glide_res:A117_coul>
19.2445175502193

> <r_glide_res:A117_hbond>
0

> <r_glide_res:A117_dist>
3.09132161706813

> <r_glide_res:A117_Eint>
17.465255807484

> <r_glide_res:A113_vdw>
-0.401584775381396

> <r_glide_res:A113_coul>
-14.991403883946

> <r_glide_res:A113_hbond>
-0.346255100821863

> <r_glide_res:A113_dist>
2.01139696914327

> <r_glide_res:A113_Eint>
-15.7392437601493

> <r_glide_res:A82_vdw>
-0.75724232547006

> <r_glide_res:A82_coul>
-64.8516229020238

> <r_glide_res:A82_hbond>
-0.451197405658958

> <r_glide_res:A82_dist>
1.95729876697926

> <r_glide_res:A82_Eint>
-66.0600626331528

> <r_glide_res:A42_vdw>
-1.60539514465546

> <r_glide_res:A42_coul>
-39.8650077165475

> <r_glide_res:A42_hbond>
0

> <r_glide_res:A42_dist>
1.98716910240085

> <r_glide_res:A42_Eint>
-41.4704028612029

> <r_glide_res:A16_vdw>
-0.134322567242999

> <r_glide_res:A16_coul>
-19.1298022353023

> <r_glide_res:A16_hbond>
0

> <r_glide_res:A16_dist>
6.22578988890647

> <r_glide_res:A16_Eint>
-19.2641248025453

> <s_m_source_file>
ligprep_Nicaido_neutral.maegz

> <i_m_source_file_index>
25

> <i_lp_mmshare_version>
58128

> <i_f3d_flags>
0

> <s_lp_Force_Field>
S-OPLS

> <r_lp_Energy>
27.061927

> <b_lp_Chiralities_Consistent>
1

> <s_lp_Variant>
Cephalosporin C-1

> <s_epik_input>
Tz1bQ0hdT1tDSDJdQyg9QzFDKD1PKVtPSF0pW0NIMl1TW0NASF0oTjEyKVtDQEhdKEMyPU8pW05IXUMoPU8pW0NIMl1bQ0gyXVtDSDJdW0NAQEhdKFtOSDJdKUMoPU8pW09IXQ==

> <s_epik_cmdline>
J2VwaWtfcHl0aG9uJywgJy1waHQnLCAnMC4wJywgJy1waCcsICc3LjQnLCAnLW50JywgJy1tYScsICc1MDAnLCAnLWltYWUnLCAnPGluZmlsZS5tYWU+JywgJy1vbWFlJywgJzxvdXRmaWxlLm1hZT4n

> <r_lp_tautomer_probability>
1

> <r_epik_Ionization_Penalty>
  0.0034

> <r_epik_Ionization_Penalty_Charging>
  0.0034

> <r_epik_Ionization_Penalty_Neutral>
  0.0000

> <r_epik_State_Penalty>
  0.0000

> <r_epik_Charging_Adjusted_Penalty>
0.00339038450865705

> <i_epik_Tot_Q>
-1

> <i_epik_Tot_abs_Q>
3

> <s_epik_Chemistry_Notes>
This compound has an ester and may undergo hydrolysis at high or low pH. This compound contains an acetal/aminal-like group ( X-CH(R)-Y where X, Y are N, S, or O) that may be acid/base labile, releasing an aldehyde.

> <s_m_subgroup_title>
glide-dock_Nicaido_neutral_pv1

> <s_m_subgroupid>
glide-dock_Nicaido_neutral_pv1

> <b_m_subgroup_collapsed>
0

$$$$
Ampicillin
                    3D
 Schrodinger Suite 2022-2.
 42 44  0  0  1  0            999 V2000
  -31.4112  -20.3889  -24.6077 C   0  0  0  0  0  0
  -30.7147  -20.5150  -23.2382 C   0  0  0  0  0  0
  -29.5884  -21.5951  -23.1876 C   0  0  2  0  0  0
  -28.4038  -20.8785  -23.5791 N   0  0  0  0  0  0
  -28.1132  -19.5496  -23.1000 C   0  0  2  0  0  0
  -29.8307  -18.9305  -22.9230 S   0  0  0  0  0  0
  -27.2401  -19.3465  -24.3535 C   0  0  2  0  0  0
  -27.6256  -20.7808  -24.7023 C   0  0  0  0  0  0
  -27.4247  -21.5496  -25.6134 O   0  0  0  0  0  0
  -25.8035  -19.1496  -24.1139 N   0  0  0  0  0  0
  -24.9328  -19.8936  -23.4103 C   0  0  0  0  0  0
  -23.4611  -19.4415  -23.4528 C   0  0  2  0  0  0
  -22.9369  -20.0050  -24.7365 C   0  0  0  0  0  0
  -22.7352  -21.3952  -24.9302 C   0  0  0  0  0  0
  -22.2630  -21.9056  -26.1548 C   0  0  0  0  0  0
  -21.9689  -21.0295  -27.2134 C   0  0  0  0  0  0
  -22.1437  -19.6471  -27.0424 C   0  0  0  0  0  0
  -22.6247  -19.1496  -25.8183 C   0  0  0  0  0  0
  -22.7136  -19.9196  -22.2913 N   0  0  0  0  0  0
  -25.2499  -20.8975  -22.7668 O   0  0  0  0  0  0
  -29.7627  -22.9389  -23.9203 C   0  0  0  0  0  0
  -29.5689  -23.9496  -23.2134 O   0  5  0  0  0  0
  -29.9689  -22.9734  -25.1593 O   0  0  0  0  0  0
  -31.7628  -20.7564  -22.1381 C   0  0  0  0  0  0
  -32.0016  -21.2750  -24.8414 H   0  0  0  0  0  0
  -32.0896  -19.5354  -24.6230 H   0  0  0  0  0  0
  -30.6863  -20.2459  -25.4091 H   0  0  0  0  0  0
  -29.4156  -21.8368  -22.1370 H   0  0  0  0  0  0
  -27.5774  -19.5340  -22.1493 H   0  0  0  0  0  0
  -27.6629  -18.5948  -25.0210 H   0  0  0  0  0  0
  -25.4124  -18.3211  -24.5662 H   0  0  0  0  0  0
  -23.4293  -18.3500  -23.4556 H   0  0  0  0  0  0
  -22.9640  -22.0827  -24.1294 H   0  0  0  0  0  0
  -22.1257  -22.9682  -26.2877 H   0  0  0  0  0  0
  -21.6135  -21.4167  -28.1562 H   0  0  0  0  0  0
  -21.9247  -18.9678  -27.8537 H   0  0  0  0  0  0
  -22.7679  -18.0840  -25.7150 H   0  0  0  0  0  0
  -23.3483  -20.3497  -21.6316 H   0  0  0  0  0  0
  -22.0459  -20.6268  -22.5562 H   0  0  0  0  0  0
  -32.2710  -21.7110  -22.2757 H   0  0  0  0  0  0
  -31.3048  -20.7661  -21.1477 H   0  0  0  0  0  0
  -32.5207  -19.9724  -22.1334 H   0  0  0  0  0  0
  1  2  1  0  0  0
  1 25  1  0  0  0
  1 26  1  0  0  0
  1 27  1  0  0  0
  2  6  1  0  0  0
  2  3  1  0  0  0
  2 24  1  0  0  0
  3  4  1  0  0  0
  3 21  1  0  0  0
  3 28  1  0  0  0
  4  8  1  0  0  0
  4  5  1  0  0  0
  5  6  1  0  0  0
  5  7  1  0  0  0
  5 29  1  0  0  0
  7  8  1  0  0  0
  7 10  1  0  0  0
  7 30  1  0  0  0
  8  9  2  0  0  0
 10 11  1  0  0  0
 10 31  1  0  0  0
 11 12  1  0  0  0
 11 20  2  0  0  0
 12 13  1  0  0  0
 12 19  1  0  0  0
 12 32  1  0  0  0
 13 18  1  0  0  0
 13 14  2  0  0  0
 14 15  1  0  0  0
 14 33  1  0  0  0
 15 16  2  0  0  0
 15 34  1  0  0  0
 16 17  1  0  0  0
 16 35  1  0  0  0
 17 18  2  0  0  0
 17 36  1  0  0  0
 18 37  1  0  0  0
 19 38  1  0  0  0
 19 39  1  0  0  0
 21 22  1  0  0  0
 21 23  2  0  0  0
 24 40  1  0  0  0
 24 41  1  0  0  0
 24 42  1  0  0  0
M  CHG  1  22  -1
M  END
> <s_m_entry_id>
27539

> <s_m_entry_name>
data_maestro.18

> <s_m_Source_Path>
C:\Users\olshana1\Git\GramNeg-Accumulation\Gram Negative Permeation - OmpF

> <s_m_Source_File>
data_maestro.csv

> <i_m_Source_File_Index>
18

> <s_m_job_name>
glide-dock_Nicaido_neutral

> <s_i_glide_gridfile>
3POX-grid

> <i_i_glide_lignum>
23

> <i_i_glide_rotatable_bonds>
5

> <r_i_docking_score>
-4.7087135075639

> <r_i_glide_ligand_efficiency>
-0.196196396148496

> <r_i_glide_ligand_efficiency_sa>
-0.565928335482544

> <r_i_glide_ligand_efficiency_ln>
-1.12701121114367

> <r_i_glide_gscore>
-4.8146135075639

> <r_i_glide_lipo>
-0.34032320077923

> <r_i_glide_hbond>
-0.710428205648313

> <r_i_glide_metal>
0

> <r_i_glide_rewards>
-1.03358643462302

> <r_i_glide_evdw>
-22.1106700897217

> <r_i_glide_ecoul>
-11.2792348861694

> <r_i_glide_erotb>
0.470487855572594

> <r_i_glide_esite>
-0.403344784674433

> <r_i_glide_emodel>
-53.5622035348494

> <r_i_glide_energy>
-33.3899049758911

> <r_i_glide_einternal>
4.48121929168701

> <i_i_glide_confnum>
4

> <i_i_glide_posenum>
161

> <r_i_glide_eff_state_penalty>
0.1059

> <r_glide_res:A132_vdw>
-0.627676228297302

> <r_glide_res:A132_coul>
-30.4858649617801

> <r_glide_res:A132_hbond>
0

> <r_glide_res:A132_dist>
3.49583248081447

> <r_glide_res:A132_Eint>
-31.1135411900774

> <r_glide_res:A117_vdw>
-4.45384376657598

> <r_glide_res:A117_coul>
7.51544127246284

> <r_glide_res:A117_hbond>
-0.16

> <r_glide_res:A117_dist>
1.86784908109589

> <r_glide_res:A117_Eint>
2.90159750588686

> <r_glide_res:A113_vdw>
-1.78262123586498

> <r_glide_res:A113_coul>
24.7629438568386

> <r_glide_res:A113_hbond>
0

> <r_glide_res:A113_dist>
2.67697567729547

> <r_glide_res:A113_Eint>
22.9803226209736

> <r_glide_res:A82_vdw>
1.18636583883314

> <r_glide_res:A82_coul>
-49.980446555653

> <r_glide_res:A82_hbond>
-0.190428205648313

> <r_glide_res:A82_dist>
1.7542308142891

> <r_glide_res:A82_Eint>
-48.9845089224682

> <r_glide_res:A42_vdw>
2.39119879505814

> <r_glide_res:A42_coul>
-53.8372455461995

> <r_glide_res:A42_hbond>
-0.36

> <r_glide_res:A42_dist>
1.65888435470439

> <r_glide_res:A42_Eint>
-51.8060467511413

> <r_glide_res:A16_vdw>
-0.830688273664938

> <r_glide_res:A16_coul>
-32.5641360438633

> <r_glide_res:A16_hbond>
0

> <r_glide_res:A16_dist>
2.88761387798913

> <r_glide_res:A16_Eint>
-33.3948243175282

> <s_m_source_file>
ligprep_Nicaido_neutral.maegz

> <i_m_source_file_index>
18

> <i_lp_mmshare_version>
58128

> <i_f3d_flags>
0

> <s_lp_Force_Field>
S-OPLS

> <r_lp_Energy>
33.736216

> <b_lp_Chiralities_Consistent>
1

> <s_lp_Variant>
Ampicillin-1

> <s_epik_input>
W09IXUMoPU8pW0NAQEhdMUMoW0NIM10pKFtDSDNdKVNbQ0BASF0oTjEyKVtDQEhdKEMyPU8pW05IXUMoPU8pW0NAQEhdKFtOSDJdKWMzW2NIXVtjSF1bY0hdW2NIXVtjSF0z

> <s_epik_cmdline>
J2VwaWtfcHl0aG9uJywgJy1waHQnLCAnMC4wJywgJy1waCcsICc3LjQnLCAnLW50JywgJy1tYScsICc1MDAnLCAnLWltYWUnLCAnPGluZmlsZS5tYWU+JywgJy1vbWFlJywgJzxvdXRmaWxlLm1hZT4n

> <r_epik_Ionization_Penalty>
  0.1060

> <r_epik_Ionization_Penalty_Charging>
  0.0000

> <r_epik_Ionization_Penalty_Neutral>
  0.1059

> <r_epik_State_Penalty>
  0.1059

> <r_epik_Charging_Adjusted_Penalty>
0.105949346496876

> <i_epik_Tot_Q>
-1

> <i_epik_Tot_abs_Q>
1

> <s_epik_Chemistry_Notes>
This compound contains an acetal/aminal-like group ( X-CH(R)-Y where X, Y are N, S, or O) that may be acid/base labile, releasing an aldehyde.

> <s_m_subgroup_title>
glide-dock_Nicaido_neutral_pv1

> <s_m_subgroupid>
glide-dock_Nicaido_neutral_pv1

> <b_m_subgroup_collapsed>
0

$$$$
Sulbenicillin
                    3D
 Schrodinger Suite 2022-2.
 43 45  0  0  1  0            999 V2000
  -28.7635  -21.5013  -20.5851 C   0  0  0  0  0  0
  -28.6206  -20.9798  -22.0312 C   0  0  0  0  0  0
  -28.7123  -22.1015  -23.1281 C   0  0  2  0  0  0
  -30.0491  -21.9841  -23.6770 N   0  0  0  0  0  0
  -31.0917  -21.1532  -23.1035 C   0  0  1  0  0  0
  -30.0454  -19.8674  -22.3626 S   0  0  0  0  0  0
  -31.7609  -21.1233  -24.4855 C   0  0  2  0  0  0
  -30.5441  -21.9354  -24.9547 C   0  0  0  0  0  0
  -30.1013  -22.3496  -26.0066 O   0  0  0  0  0  0
  -31.8458  -19.7819  -25.0638 N   0  0  0  0  0  0
  -32.3932  -19.5398  -26.2672 C   0  0  0  0  0  0
  -32.5221  -18.0669  -26.7030 C   0  0  2  0  0  0
  -33.7433  -17.4271  -26.0436 C   0  0  0  0  0  0
  -35.0481  -17.9105  -26.2943 C   0  0  0  0  0  0
  -36.1564  -17.3474  -25.6326 C   0  0  0  0  0  0
  -35.9704  -16.2946  -24.7169 C   0  0  0  0  0  0
  -34.6766  -15.8011  -24.4692 C   0  0  0  0  0  0
  -33.5687  -16.3632  -25.1317 C   0  0  0  0  0  0
  -32.5378  -17.8455  -28.5601 S   0  0  0  0  0  0
  -33.6597  -18.6587  -29.0548 O   0  0  0  0  0  0
  -31.2193  -18.3488  -28.9844 O   0  5  0  0  0  0
  -32.7277  -16.3997  -28.7521 O   0  0  0  0  0  0
  -32.8007  -20.4579  -26.9810 O   0  0  0  0  0  0
  -28.3728  -23.5496  -22.7155 C   0  0  0  0  0  0
  -27.1766  -23.9106  -22.8032 O   0  5  0  0  0  0
  -29.2931  -24.3461  -22.4136 O   0  0  0  0  0  0
  -27.3095  -20.1855  -22.1576 C   0  0  0  0  0  0
  -27.9393  -22.1582  -20.3047 H   0  0  0  0  0  0
  -28.7663  -20.6759  -19.8718 H   0  0  0  0  0  0
  -29.6959  -22.0512  -20.4384 H   0  0  0  0  0  0
  -28.0325  -21.8462  -23.9420 H   0  0  0  0  0  0
  -31.6801  -21.6718  -22.3438 H   0  0  0  0  0  0
  -32.7053  -21.6698  -24.4929 H   0  0  0  0  0  0
  -31.5304  -19.0099  -24.4911 H   0  0  0  0  0  0
  -31.6310  -17.5324  -26.3732 H   0  0  0  0  0  0
  -35.2013  -18.7285  -26.9834 H   0  0  0  0  0  0
  -37.1480  -17.7316  -25.8205 H   0  0  0  0  0  0
  -36.8183  -15.8657  -24.2036 H   0  0  0  0  0  0
  -34.5298  -14.9978  -23.7620 H   0  0  0  0  0  0
  -32.5800  -15.9813  -24.9196 H   0  0  0  0  0  0
  -26.4421  -20.8230  -21.9839 H   0  0  0  0  0  0
  -27.2036  -19.7405  -23.1474 H   0  0  0  0  0  0
  -27.2740  -19.3675  -21.4363 H   0  0  0  0  0  0
  1  2  1  0  0  0
  1 28  1  0  0  0
  1 29  1  0  0  0
  1 30  1  0  0  0
  2  6  1  0  0  0
  2  3  1  0  0  0
  2 27  1  0  0  0
  3  4  1  0  0  0
  3 24  1  0  0  0
  3 31  1  0  0  0
  4  8  1  0  0  0
  4  5  1  0  0  0
  5  6  1  0  0  0
  5  7  1  0  0  0
  5 32  1  0  0  0
  7  8  1  0  0  0
  7 10  1  0  0  0
  7 33  1  0  0  0
  8  9  2  0  0  0
 10 11  1  0  0  0
 10 34  1  0  0  0
 11 12  1  0  0  0
 11 23  2  0  0  0
 12 13  1  0  0  0
 12 19  1  0  0  0
 12 35  1  0  0  0
 13 18  1  0  0  0
 13 14  2  0  0  0
 14 15  1  0  0  0
 14 36  1  0  0  0
 15 16  2  0  0  0
 15 37  1  0  0  0
 16 17  1  0  0  0
 16 38  1  0  0  0
 17 18  2  0  0  0
 17 39  1  0  0  0
 18 40  1  0  0  0
 19 20  2  0  0  0
 19 21  1  0  0  0
 19 22  2  0  0  0
 24 25  1  0  0  0
 24 26  2  0  0  0
 27 41  1  0  0  0
 27 42  1  0  0  0
 27 43  1  0  0  0
M  CHG  2  21  -1  25  -1
M  END
> <s_m_entry_id>
27540

> <s_m_entry_name>
data_maestro.23

> <s_m_Source_Path>
C:\Users\olshana1\Git\GramNeg-Accumulation\Gram Negative Permeation - OmpF

> <s_m_Source_File>
data_maestro.csv

> <i_m_Source_File_Index>
23

> <s_m_job_name>
glide-dock_Nicaido_neutral

> <s_i_glide_gridfile>
3POX-grid

> <i_i_glide_lignum>
30

> <i_i_glide_rotatable_bonds>
6

> <r_i_docking_score>
-4.70826448775143

> <r_i_glide_ligand_efficiency>
-0.174380166213016

> <r_i_glide_ligand_efficiency_sa>
-0.523140498064319

> <r_i_glide_ligand_efficiency_ln>
-1.09600635094198

> <r_i_glide_gscore>
-4.70826448775143

> <r_i_glide_lipo>
-0.1174756585361

> <r_i_glide_hbond>
-0.771091009036388

> <r_i_glide_metal>
0

> <r_i_glide_rewards>
-0.596936807264361

> <r_i_glide_evdw>
-21.0614738464355

> <r_i_glide_ecoul>
-14.3234024047852

> <r_i_glide_erotb>
0.347763984117939

> <r_i_glide_esite>
-0.368940943992965

> <r_i_glide_emodel>
-59.6884799748691

> <r_i_glide_energy>
-35.3848762512207

> <r_i_glide_einternal>
2.45255088806152

> <i_i_glide_confnum>
2

> <i_i_glide_posenum>
365

> <r_i_glide_eff_state_penalty>
0

> <r_glide_res:A132_vdw>
-1.30617781651641

> <r_glide_res:A132_coul>
-51.9231233880972

> <r_glide_res:A132_hbond>
0

> <r_glide_res:A132_dist>
2.57405715429326

> <r_glide_res:A132_Eint>
-53.2293012046136

> <r_glide_res:A117_vdw>
-2.22825093361128

> <r_glide_res:A117_coul>
41.1816595070206

> <r_glide_res:A117_hbond>
0

> <r_glide_res:A117_dist>
2.84903573016287

> <r_glide_res:A117_Eint>
38.9534085734094

> <r_glide_res:A113_vdw>
-2.45756286184905

> <r_glide_res:A113_coul>
39.5425988701886

> <r_glide_res:A113_hbond>
0

> <r_glide_res:A113_dist>
2.57077123004731

> <r_glide_res:A113_Eint>
37.0850360083396

> <r_glide_res:A82_vdw>
5.06070627837168

> <r_glide_res:A82_coul>
-74.142517877169

> <r_glide_res:A82_hbond>
-0.39603200071951

> <r_glide_res:A82_dist>
1.59206400143902

> <r_glide_res:A82_Eint>
-69.4778435995168

> <r_glide_res:A42_vdw>
-0.376102325727976

> <r_glide_res:A42_coul>
-57.0462666333078

> <r_glide_res:A42_hbond>
-0.16

> <r_glide_res:A42_dist>
1.84745483458761

> <r_glide_res:A42_Eint>
-57.5823689590357

> <r_glide_res:A16_vdw>
-0.304559905244788

> <r_glide_res:A16_coul>
-79.8022886397919

> <r_glide_res:A16_hbond>
-0.215059008316879

> <r_glide_res:A16_dist>
1.92474596458465

> <r_glide_res:A16_Eint>
-80.3219075533535

> <s_m_source_file>
ligprep_Nicaido_neutral.maegz

> <i_m_source_file_index>
23

> <i_lp_mmshare_version>
58128

> <i_f3d_flags>
0

> <s_lp_Force_Field>
S-OPLS

> <r_lp_Energy>
22.166908

> <b_lp_Chiralities_Consistent>
1

> <s_lp_Variant>
Sulbenicillin-1

> <s_epik_input>
W09IXUMoPU8pW0NAQEhdMUMoW0NIM10pKFtDSDNdKVNbQ0BIXShOMTIpW0NASF0oQzI9TylbTkhdQyg9TylbQ0BASF0oUyg9TykoPU8pW09IXSljM1tjSF1bY0hdW2NIXVtjSF1bY0hdMw==

> <s_epik_cmdline>
J2VwaWtfcHl0aG9uJywgJy1waHQnLCAnMC4wJywgJy1waCcsICc3LjQnLCAnLW50JywgJy1tYScsICc1MDAnLCAnLWltYWUnLCAnPGluZmlsZS5tYWU+JywgJy1vbWFlJywgJzxvdXRmaWxlLm1hZT4n

> <r_lp_tautomer_probability>
1

> <r_epik_Ionization_Penalty>
  0.0000

> <r_epik_Ionization_Penalty_Charging>
  0.0000

> <r_epik_Ionization_Penalty_Neutral>
  0.0000

> <r_epik_State_Penalty>
  0.0000

> <r_epik_Charging_Adjusted_Penalty>
1.13251598244902e-05

> <i_epik_Tot_Q>
-2

> <i_epik_Tot_abs_Q>
2

> <s_epik_Chemistry_Notes>
This compound contains an acetal/aminal-like group ( X-CH(R)-Y where X, Y are N, S, or O) that may be acid/base labile, releasing an aldehyde.

> <s_m_subgroup_title>
glide-dock_Nicaido_neutral_pv1

> <s_m_subgroupid>
glide-dock_Nicaido_neutral_pv1

> <b_m_subgroup_collapsed>
0

$$$$
Cefotaxime
                    3D
 Schrodinger Suite 2022-2.
 46 48  0  0  1  0            999 V2000
  -21.8705  -20.5549  -27.6528 C   0  0  0  0  0  0
  -22.1963  -21.5461  -26.5479 C   0  0  0  0  0  0
  -21.4060  -21.3756  -25.4723 O   0  0  0  0  0  0
  -21.5527  -22.2007  -24.3252 C   0  0  0  0  0  0
  -22.8624  -21.9380  -23.5810 C   0  0  0  0  0  0
  -23.7603  -22.9139  -23.2713 C   0  0  0  0  0  0
  -25.0170  -22.5970  -22.7147 N   0  0  0  0  0  0
  -25.6057  -21.2740  -22.8113 C   0  0  1  0  0  0
  -26.7976  -21.8055  -21.9913 C   0  0  2  0  0  0
  -26.1474  -23.1935  -22.1969 C   0  0  0  0  0  0
  -26.4555  -24.3495  -22.0134 O   0  0  0  0  0  0
  -28.0679  -21.5470  -22.6844 N   0  0  0  0  0  0
  -29.0131  -22.4035  -23.1358 C   0  0  0  0  0  0
  -30.1554  -21.7080  -23.8729 C   0  0  0  0  0  0
  -30.3939  -20.3190  -23.4291 C   0  0  0  0  0  0
  -30.1673  -19.2650  -24.2792 C   0  0  0  0  0  0
  -30.3690  -17.7430  -23.4714 S   0  0  0  0  0  0
  -30.7913  -18.6035  -21.9973 C   0  0  0  0  0  0
  -31.0929  -17.9530  -20.8134 N   0  0  0  0  0  0
  -30.7749  -19.9275  -22.1404 N   0  0  0  0  0  0
  -30.8687  -22.1983  -24.8138 N   0  0  0  0  0  0
  -30.4982  -23.4916  -25.2127 O   0  0  0  0  0  0
  -31.6109  -24.0762  -25.8673 C   0  0  0  0  0  0
  -28.9746  -23.6288  -23.0053 O   0  0  0  0  0  0
  -24.4183  -20.0948  -22.1240 S   0  0  0  0  0  0
  -23.0783  -20.4496  -23.2872 C   0  0  0  0  0  0
  -23.4873  -24.4398  -23.5839 C   0  0  0  0  0  0
  -24.3689  -25.0634  -24.2172 O   0  5  0  0  0  0
  -22.3853  -24.9101  -23.2134 O   0  0  0  0  0  0
  -23.0929  -22.3829  -26.6737 O   0  0  0  0  0  0
  -20.8498  -20.1845  -27.5556 H   0  0  0  0  0  0
  -21.9682  -21.0399  -28.6224 H   0  0  0  0  0  0
  -22.5540  -19.7070  -27.6126 H   0  0  0  0  0  0
  -20.7269  -21.9874  -23.6465 H   0  0  0  0  0  0
  -21.4367  -23.2363  -24.6384 H   0  0  0  0  0  0
  -25.8490  -21.0320  -23.8486 H   0  0  0  0  0  0
  -26.7864  -21.4470  -20.9609 H   0  0  0  0  0  0
  -28.2641  -20.5640  -22.8198 H   0  0  0  0  0  0
  -29.8546  -19.2809  -25.3118 H   0  0  0  0  0  0
  -31.0638  -18.5537  -19.9848 H   0  0  0  0  0  0
  -30.6248  -17.0658  -20.6719 H   0  0  0  0  0  0
  -31.3612  -25.0884  -26.1856 H   0  0  0  0  0  0
  -32.4709  -24.1427  -25.1978 H   0  0  0  0  0  0
  -31.9013  -23.5069  -26.7518 H   0  0  0  0  0  0
  -22.1607  -20.0161  -22.8895 H   0  0  0  0  0  0
  -23.2972  -19.9314  -24.2211 H   0  0  0  0  0  0
  1  2  1  0  0  0
  1 31  1  0  0  0
  1 32  1  0  0  0
  1 33  1  0  0  0
  2  3  1  0  0  0
  2 30  2  0  0  0
  3  4  1  0  0  0
  4  5  1  0  0  0
  4 34  1  0  0  0
  4 35  1  0  0  0
  5 26  1  0  0  0
  5  6  2  0  0  0
  6  7  1  0  0  0
  6 27  1  0  0  0
  7 10  1  0  0  0
  7  8  1  0  0  0
  8  9  1  0  0  0
  8 25  1  0  0  0
  8 36  1  0  0  0
  9 10  1  0  0  0
  9 12  1  0  0  0
  9 37  1  0  0  0
 10 11  2  0  0  0
 12 13  1  0  0  0
 12 38  1  0  0  0
 13 14  1  0  0  0
 13 24  2  0  0  0
 14 15  1  0  0  0
 14 21  2  3  0  0
 15 20  1  0  0  0
 15 16  2  0  0  0
 16 17  1  0  0  0
 16 39  1  0  0  0
 17 18  1  0  0  0
 18 19  1  0  0  0
 18 20  2  0  0  0
 19 40  1  0  0  0
 19 41  1  0  0  0
 21 22  1  0  0  0
 22 23  1  0  0  0
 23 42  1  0  0  0
 23 43  1  0  0  0
 23 44  1  0  0  0
 25 26  1  0  0  0
 26 45  1  0  0  0
 26 46  1  0  0  0
 27 28  1  0  0  0
 27 29  2  0  0  0
M  CHG  1  28  -1
M  END
> <s_m_entry_id>
27541

> <s_m_entry_name>
data_maestro.6

> <s_m_Source_Path>
C:\Users\olshana1\Git\GramNeg-Accumulation\Gram Negative Permeation - OmpF

> <s_m_Source_File>
data_maestro.csv

> <i_m_Source_File_Index>
6

> <s_m_job_name>
glide-dock_Nicaido_neutral

> <s_i_glide_gridfile>
3POX-grid

> <i_i_glide_lignum>
8

> <i_i_glide_rotatable_bonds>
9

> <r_i_docking_score>
-4.70506608875923

> <r_i_glide_ligand_efficiency>
-0.156835536291974

> <r_i_glide_ligand_efficiency_sa>
-0.487324475902634

> <r_i_glide_ligand_efficiency_ln>
-1.0690422811672

> <r_i_glide_gscore>
-4.70506608875923

> <r_i_glide_lipo>
-0.220742686063837

> <r_i_glide_hbond>
-1.03551367243169

> <r_i_glide_metal>
0

> <r_i_glide_rewards>
-0.282044518043897

> <r_i_glide_evdw>
-24.4731273651123

> <r_i_glide_ecoul>
-13.3070678710938

> <r_i_glide_erotb>
0.680611118548691

> <r_i_glide_esite>
-0.627659781848817

> <r_i_glide_emodel>
-57.2992899293796

> <r_i_glide_energy>
-37.7801952362061

> <r_i_glide_einternal>
9.66606998443604

> <i_i_glide_confnum>
73

> <i_i_glide_posenum>
263

> <r_i_glide_eff_state_penalty>
0

> <r_glide_res:A132_vdw>
2.72582745272784

> <r_glide_res:A132_coul>
-41.6112396474311

> <r_glide_res:A132_hbond>
-0.0828182304656616

> <r_glide_res:A132_dist>
1.8319490173414

> <r_glide_res:A132_Eint>
-38.9682304251689

> <r_glide_res:A117_vdw>
-3.60806251482316

> <r_glide_res:A117_coul>
13.7141930108085

> <r_glide_res:A117_hbond>
0

> <r_glide_res:A117_dist>
2.9580887434087

> <r_glide_res:A117_Eint>
10.1061304959854

> <r_glide_res:A113_vdw>
-1.76806926282038

> <r_glide_res:A113_coul>
14.1832592190583

> <r_glide_res:A113_hbond>
-0.152872275622494

> <r_glide_res:A113_dist>
1.88402630003475

> <r_glide_res:A113_Eint>
12.2623176806155

> <r_glide_res:A82_vdw>
-2.0833636059116

> <r_glide_res:A82_coul>
-52.65026530993

> <r_glide_res:A82_hbond>
-0.327415304943729

> <r_glide_res:A82_dist>
2.00898220439961

> <r_glide_res:A82_Eint>
-55.0610442207854

> <r_glide_res:A42_vdw>
-2.75496527332684

> <r_glide_res:A42_coul>
-37.1582348858018

> <r_glide_res:A42_hbond>
0

> <r_glide_res:A42_dist>
2.01156379472719

> <r_glide_res:A42_Eint>
-39.9132001591286

> <r_glide_res:A16_vdw>
-0.897923655580337

> <r_glide_res:A16_coul>
-16.6478849808377

> <r_glide_res:A16_hbond>
0

> <r_glide_res:A16_dist>
3.12155965702205

> <r_glide_res:A16_Eint>
-17.545808636418

> <s_m_source_file>
ligprep_Nicaido_neutral.maegz

> <i_m_source_file_index>
6

> <i_lp_mmshare_version>
58128

> <i_f3d_flags>
0

> <s_lp_Force_Field>
S-OPLS

> <r_lp_Energy>
51.702138

> <b_lp_Chiralities_Consistent>
1

> <s_lp_Variant>
Cefotaxime-2

> <s_epik_input>
W0NIM11DKD1PKU9bQ0gyXUMoPUMxQyg9TylbT0hdKVtDSDJdU1tDQEBIXShOMTIpW0NASF0oQzI9TylbTkhdQyg9TykvQyg9Ti9PW0NIM10pYzNbY0hdc2MobjMpW05IMl0=

> <s_epik_cmdline>
J2VwaWtfcHl0aG9uJywgJy1waHQnLCAnMC4wJywgJy1waCcsICc3LjQnLCAnLW50JywgJy1tYScsICc1MDAnLCAnLWltYWUnLCAnPGluZmlsZS5tYWU+JywgJy1vbWFlJywgJzxvdXRmaWxlLm1hZT4n

> <r_lp_tautomer_probability>
1

> <r_epik_Ionization_Penalty>
  0.0004

> <r_epik_Ionization_Penalty_Charging>
  0.0000

> <r_epik_Ionization_Penalty_Neutral>
  0.0004

> <r_epik_State_Penalty>
  0.0000

> <r_epik_Charging_Adjusted_Penalty>
5.45682606121274e-06

> <i_epik_Tot_Q>
-1

> <i_epik_Tot_abs_Q>
1

> <s_epik_Chemistry_Notes>
This compound has an ester and may undergo hydrolysis at high or low pH. This compound has an imine and may undergo hydrolysis. This compound contains an acetal/aminal-like group ( X-CH(R)-Y where X, Y are N, S, or O) that may be acid/base labile, releasing an aldehyde.

> <s_m_subgroup_title>
glide-dock_Nicaido_neutral_pv1

> <s_m_subgroupid>
glide-dock_Nicaido_neutral_pv1

> <b_m_subgroup_collapsed>
0

$$$$
Cephalosporin C
                    3D
 Schrodinger Suite 2022-2.
 45 46  0  0  1  0            999 V2000
  -32.7687  -20.2481  -26.8118 O   0  0  0  0  0  0
  -33.4201  -19.7114  -25.9143 C   0  0  0  0  0  0
  -33.3971  -20.0361  -24.6083 O   0  0  0  0  0  0
  -32.5433  -21.0651  -24.1252 C   0  0  0  0  0  0
  -31.1483  -20.5383  -23.8052 C   0  0  0  0  0  0
  -30.0104  -21.0641  -24.3284 C   0  0  0  0  0  0
  -28.7381  -20.5228  -24.0711 N   0  0  0  0  0  0
  -28.5483  -19.1840  -23.5473 C   0  0  2  0  0  0
  -27.0275  -19.4528  -23.5789 C   0  0  2  0  0  0
  -27.3957  -20.7916  -24.2694 C   0  0  0  0  0  0
  -26.8233  -21.7133  -24.8132 O   0  0  0  0  0  0
  -26.4557  -19.5500  -22.2372 N   0  0  0  0  0  0
  -25.2873  -20.1244  -21.9201 C   0  0  0  0  0  0
  -24.8133  -19.9611  -20.4751 C   0  0  0  0  0  0
  -25.1251  -21.1943  -19.6092 C   0  0  0  0  0  0
  -26.6144  -21.2908  -19.2287 C   0  0  0  0  0  0
  -26.9812  -22.5399  -18.3979 C   0  0  2  0  0  0
  -26.8611  -23.8376  -19.2161 C   0  0  0  0  0  0
  -26.0742  -24.7242  -18.8134 O   0  5  0  0  0  0
  -27.5691  -23.9496  -20.2423 O   0  0  0  0  0  0
  -28.3688  -22.4210  -17.9244 N   0  3  0  0  0  0
  -24.5972  -20.7498  -22.7231 O   0  0  0  0  0  0
  -29.5669  -19.0445  -22.0416 S   0  0  0  0  0  0
  -31.1636  -19.3498  -22.8440 C   0  0  0  0  0  0
  -30.0196  -22.3392  -25.2222 C   0  0  0  0  0  0
  -30.3690  -22.1755  -26.4133 O   0  5  0  0  0  0
  -29.5680  -23.3934  -24.7248 O   0  0  0  0  0  0
  -34.1207  -18.8894  -26.0648 H   0  0  0  0  0  0
  -32.5308  -21.9026  -24.8206 H   0  0  0  0  0  0
  -32.9723  -21.4492  -23.2003 H   0  0  0  0  0  0
  -28.8469  -18.4363  -24.2835 H   0  0  0  0  0  0
  -26.5013  -18.7413  -24.2169 H   0  0  0  0  0  0
  -26.9551  -19.0437  -21.5186 H   0  0  0  0  0  0
  -25.2405  -19.0599  -20.0330 H   0  0  0  0  0  0
  -23.7349  -19.8024  -20.5010 H   0  0  0  0  0  0
  -24.5279  -21.1466  -18.6973 H   0  0  0  0  0  0
  -24.8027  -22.0973  -20.1316 H   0  0  0  0  0  0
  -27.2347  -21.2581  -20.1268 H   0  0  0  0  0  0
  -26.8786  -20.3953  -18.6619 H   0  0  0  0  0  0
  -26.3390  -22.5972  -17.5169 H   0  0  0  0  0  0
  -28.6077  -23.2345  -17.3788 H   0  0  0  0  0  0
  -28.4702  -21.5913  -17.3611 H   0  0  0  0  0  0
  -31.4679  -18.4547  -23.3862 H   0  0  0  0  0  0
  -31.9020  -19.5211  -22.0593 H   0  0  0  0  0  0
  -28.9994  -22.3586  -18.7135 H   0  0  0  0  0  0
  1  2  2  0  0  0
  2  3  1  0  0  0
  2 28  1  0  0  0
  3  4  1  0  0  0
  4  5  1  0  0  0
  4 29  1  0  0  0
  4 30  1  0  0  0
  5 24  1  0  0  0
  5  6  2  0  0  0
  6  7  1  0  0  0
  6 25  1  0  0  0
  7 10  1  0  0  0
  7  8  1  0  0  0
  8  9  1  0  0  0
  8 23  1  0  0  0
  8 31  1  0  0  0
  9 10  1  0  0  0
  9 12  1  0  0  0
  9 32  1  0  0  0
 10 11  2  0  0  0
 12 13  1  0  0  0
 12 33  1  0  0  0
 13 14  1  0  0  0
 13 22  2  0  0  0
 14 15  1  0  0  0
 14 34  1  0  0  0
 14 35  1  0  0  0
 15 16  1  0  0  0
 15 36  1  0  0  0
 15 37  1  0  0  0
 16 17  1  0  0  0
 16 38  1  0  0  0
 16 39  1  0  0  0
 17 18  1  0  0  0
 17 21  1  0  0  0
 17 40  1  0  0  0
 18 19  1  0  0  0
 18 20  2  0  0  0
 21 41  1  0  0  0
 21 42  1  0  0  0
 21 45  1  0  0  0
 23 24  1  0  0  0
 24 43  1  0  0  0
 24 44  1  0  0  0
 25 26  1  0  0  0
 25 27  2  0  0  0
M  CHG  3  19  -1  21   1  26  -1
M  END
> <s_m_entry_id>
27542

> <s_m_entry_name>
data_maestro.25

> <s_m_Source_Path>
C:\Users\olshana1\Git\GramNeg-Accumulation\Gram Negative Permeation - OmpF

> <s_m_Source_File>
data_maestro.csv

> <i_m_Source_File_Index>
25

> <s_m_job_name>
glide-dock_Nicaido_neutral

> <s_i_glide_gridfile>
3POX-grid

> <i_i_glide_lignum>
32

> <i_i_glide_rotatable_bonds>
11

> <r_i_docking_score>
-4.69879076710342

> <r_i_glide_ligand_efficiency>
-0.174029287670497

> <r_i_glide_ligand_efficiency_sa>
-0.522087862437919

> <r_i_glide_ligand_efficiency_ln>
-1.09380102496161

> <r_i_glide_gscore>
-4.69879076710342

> <r_i_glide_lipo>
0

> <r_i_glide_hbond>
-0.963249668519793

> <r_i_glide_metal>
0

> <r_i_glide_rewards>
-0.678389530301937

> <r_i_glide_evdw>
-18.6581516265869

> <r_i_glide_ecoul>
-16.8426971435547

> <r_i_glide_erotb>
0.97830559423054

> <r_i_glide_esite>
-0.576145009649678

> <r_i_glide_emodel>
-63.6821291781501

> <r_i_glide_energy>
-35.5008487701416

> <r_i_glide_einternal>
5.00363492965698

> <i_i_glide_confnum>
13

> <i_i_glide_posenum>
363

> <r_i_glide_eff_state_penalty>
0

> <r_glide_res:A132_vdw>
0.424123020762109

> <r_glide_res:A132_coul>
-49.4531292905599

> <r_glide_res:A132_hbond>
-0.249953567266409

> <r_glide_res:A132_dist>
1.88702661352495

> <r_glide_res:A132_Eint>
-49.2789598370642

> <r_glide_res:A117_vdw>
-2.54200129485591

> <r_glide_res:A117_coul>
18.5034098797342

> <r_glide_res:A117_hbond>
0

> <r_glide_res:A117_dist>
2.53851911611642

> <r_glide_res:A117_Eint>
15.9614085848783

> <r_glide_res:A113_vdw>
-2.00419140193868

> <r_glide_res:A113_coul>
-0.898042735014168

> <r_glide_res:A113_hbond>
-0.022749357085572

> <r_glide_res:A113_dist>
2.34537657456606

> <r_glide_res:A113_Eint>
-2.92498349403842

> <r_glide_res:A82_vdw>
-1.51500465772741

> <r_glide_res:A82_coul>
-48.3393352423187

> <r_glide_res:A82_hbond>
0

> <r_glide_res:A82_dist>
2.57041842819535

> <r_glide_res:A82_Eint>
-49.8543399000461

> <r_glide_res:A42_vdw>
1.02440920842859

> <r_glide_res:A42_coul>
-59.1009508846581

> <r_glide_res:A42_hbond>
-0.506064098460341

> <r_glide_res:A42_dist>
1.86265285824797

> <r_glide_res:A42_Eint>
-58.5826057746898

> <r_glide_res:A16_vdw>
-0.570744756215292

> <r_glide_res:A16_coul>
-52.4612968790452

> <r_glide_res:A16_hbond>
-0.184482645707471

> <r_glide_res:A16_dist>
1.98659292205063

> <r_glide_res:A16_Eint>
-53.216524280968

> <s_m_source_file>
ligprep_Nicaido_neutral.maegz

> <i_m_source_file_index>
25

> <i_lp_mmshare_version>
58128

> <i_f3d_flags>
0

> <s_lp_Force_Field>
S-OPLS

> <r_lp_Energy>
27.061927

> <b_lp_Chiralities_Consistent>
1

> <s_lp_Variant>
Cephalosporin C-1

> <s_epik_input>
Tz1bQ0hdT1tDSDJdQyg9QzFDKD1PKVtPSF0pW0NIMl1TW0NASF0oTjEyKVtDQEhdKEMyPU8pW05IXUMoPU8pW0NIMl1bQ0gyXVtDSDJdW0NAQEhdKFtOSDJdKUMoPU8pW09IXQ==

> <s_epik_cmdline>
J2VwaWtfcHl0aG9uJywgJy1waHQnLCAnMC4wJywgJy1waCcsICc3LjQnLCAnLW50JywgJy1tYScsICc1MDAnLCAnLWltYWUnLCAnPGluZmlsZS5tYWU+JywgJy1vbWFlJywgJzxvdXRmaWxlLm1hZT4n

> <r_lp_tautomer_probability>
1

> <r_epik_Ionization_Penalty>
  0.0034

> <r_epik_Ionization_Penalty_Charging>
  0.0034

> <r_epik_Ionization_Penalty_Neutral>
  0.0000

> <r_epik_State_Penalty>
  0.0000

> <r_epik_Charging_Adjusted_Penalty>
0.00339038450865705

> <i_epik_Tot_Q>
-1

> <i_epik_Tot_abs_Q>
3

> <s_epik_Chemistry_Notes>
This compound has an ester and may undergo hydrolysis at high or low pH. This compound contains an acetal/aminal-like group ( X-CH(R)-Y where X, Y are N, S, or O) that may be acid/base labile, releasing an aldehyde.

> <s_m_subgroup_title>
glide-dock_Nicaido_neutral_pv1

> <s_m_subgroupid>
glide-dock_Nicaido_neutral_pv1

> <b_m_subgroup_collapsed>
0

$$$$
Ceftriaxone
                    3D
 Schrodinger Suite 2022-2.
 52 55  0  0  1  0            999 V2000
  -20.1793  -23.2735  -22.8993 C   0  0  0  0  0  0
  -21.5089  -23.7083  -22.4903 N   0  0  0  0  0  0
  -22.2088  -23.0512  -21.4428 C   0  0  0  0  0  0
  -21.0847  -22.0996  -20.3300 S   0  0  0  0  0  0
  -21.6650  -22.4230  -18.6221 C   0  0  0  0  0  0
  -23.1679  -22.2760  -18.4002 C   0  0  0  0  0  0
  -24.0059  -23.3336  -18.2150 C   0  0  0  0  0  0
  -25.4040  -23.1774  -18.1912 N   0  0  0  0  0  0
  -26.0717  -21.9193  -17.9116 C   0  0  2  0  0  0
  -27.4090  -22.6227  -18.2134 C   0  0  2  0  0  0
  -26.5594  -23.9054  -18.4130 C   0  0  0  0  0  0
  -26.7581  -25.0747  -18.6691 O   0  0  0  0  0  0
  -28.0534  -22.0678  -19.4096 N   0  0  0  0  0  0
  -28.7843  -22.7211  -20.3311 C   0  0  0  0  0  0
  -29.5258  -21.7891  -21.2648 C   0  0  0  0  0  0
  -30.6465  -22.4481  -21.9856 C   0  0  0  0  0  0
  -31.9440  -22.2022  -21.6006 C   0  0  0  0  0  0
  -33.0945  -23.1114  -22.5345 S   0  0  0  0  0  0
  -31.7534  -23.7835  -23.4469 C   0  0  0  0  0  0
  -31.9695  -24.6646  -24.4913 N   0  0  0  0  0  0
  -30.5514  -23.3580  -23.0539 N   0  0  0  0  0  0
  -29.2358  -20.5500  -21.3646 N   0  0  0  0  0  0
  -30.0818  -19.8608  -22.2492 O   0  0  0  0  0  0
  -30.1511  -18.5124  -21.8126 C   0  0  0  0  0  0
  -28.8772  -23.9493  -20.4112 O   0  0  0  0  0  0
  -25.3636  -20.6294  -18.9818 S   0  0  0  0  0  0
  -23.6394  -20.8237  -18.4689 C   0  0  0  0  0  0
  -23.4872  -24.8124  -18.1920 C   0  0  0  0  0  0
  -22.7695  -25.1494  -17.2186 O   0  5  0  0  0  0
  -23.8466  -25.5489  -19.1365 O   0  0  0  0  0  0
  -23.5029  -23.0925  -21.2999 N   0  0  0  0  0  0
  -24.2607  -23.8841  -22.1607 C   0  0  0  0  0  0
  -23.5002  -24.8047  -23.1649 C   0  0  0  0  0  0
  -24.1856  -25.5625  -23.8549 O   0  0  0  0  0  0
  -22.1432  -24.7495  -23.2134 N   0  5  0  0  0  0
  -25.4925  -23.9358  -22.1456 O   0  0  0  0  0  0
  -19.4324  -23.5762  -22.1649 H   0  0  0  0  0  0
  -19.9049  -23.7170  -23.8569 H   0  0  0  0  0  0
  -20.1386  -22.1899  -23.0196 H   0  0  0  0  0  0
  -21.1534  -21.7300  -17.9564 H   0  0  0  0  0  0
  -21.2921  -23.4055  -18.3458 H   0  0  0  0  0  0
  -25.9616  -21.6551  -16.8587 H   0  0  0  0  0  0
  -28.0676  -22.6464  -17.3439 H   0  0  0  0  0  0
  -28.0770  -21.0572  -19.4669 H   0  0  0  0  0  0
  -32.2830  -21.5430  -20.8133 H   0  0  0  0  0  0
  -31.2505  -24.7874  -25.1873 H   0  0  0  0  0  0
  -32.9142  -24.8173  -24.8153 H   0  0  0  0  0  0
  -30.7952  -17.9391  -22.4765 H   0  0  0  0  0  0
  -30.5688  -18.4473  -20.8063 H   0  0  0  0  0  0
  -29.1695  -18.0387  -21.8070 H   0  0  0  0  0  0
  -23.5051  -20.3670  -17.4882 H   0  0  0  0  0  0
  -23.0271  -20.2552  -19.1687 H   0  0  0  0  0  0
  1  2  1  0  0  0
  1 37  1  0  0  0
  1 38  1  0  0  0
  1 39  1  0  0  0
  2 35  1  0  0  0
  2  3  1  0  0  0
  3  4  1  0  0  0
  3 31  2  0  0  0
  4  5  1  0  0  0
  5  6  1  0  0  0
  5 40  1  0  0  0
  5 41  1  0  0  0
  6 27  1  0  0  0
  6  7  2  0  0  0
  7  8  1  0  0  0
  7 28  1  0  0  0
  8 11  1  0  0  0
  8  9  1  0  0  0
  9 10  1  0  0  0
  9 26  1  0  0  0
  9 42  1  0  0  0
 10 11  1  0  0  0
 10 13  1  0  0  0
 10 43  1  0  0  0
 11 12  2  0  0  0
 13 14  1  0  0  0
 13 44  1  0  0  0
 14 15  1  0  0  0
 14 25  2  0  0  0
 15 16  1  0  0  0
 15 22  2  3  0  0
 16 21  1  0  0  0
 16 17  2  0  0  0
 17 18  1  0  0  0
 17 45  1  0  0  0
 18 19  1  0  0  0
 19 20  1  0  0  0
 19 21  2  0  0  0
 20 46  1  0  0  0
 20 47  1  0  0  0
 22 23  1  0  0  0
 23 24  1  0  0  0
 24 48  1  0  0  0
 24 49  1  0  0  0
 24 50  1  0  0  0
 26 27  1  0  0  0
 27 51  1  0  0  0
 27 52  1  0  0  0
 28 29  1  0  0  0
 28 30  2  0  0  0
 31 32  1  0  0  0
 32 33  1  0  0  0
 32 36  2  0  0  0
 33 34  2  0  0  0
 33 35  1  0  0  0
M  CHG  2  29  -1  35  -1
M  END
> <s_m_entry_id>
27543

> <s_m_entry_name>
data_maestro.22

> <s_m_Source_Path>
C:\Users\olshana1\Git\GramNeg-Accumulation\Gram Negative Permeation - OmpF

> <s_m_Source_File>
data_maestro.csv

> <i_m_Source_File_Index>
22

> <s_m_job_name>
glide-dock_Nicaido_neutral

> <s_i_glide_gridfile>
3POX-grid

> <i_i_glide_lignum>
28

> <i_i_glide_rotatable_bonds>
9

> <r_i_docking_score>
-4.69452086488372

> <r_i_glide_ligand_efficiency>
-0.130403357357881

> <r_i_glide_ligand_efficiency_sa>
-0.430582398492998

> <r_i_glide_ligand_efficiency_ln>
-1.02421762142102

> <r_i_glide_gscore>
-4.69452086488372

> <r_i_glide_lipo>
0

> <r_i_glide_hbond>
-0.691625239833725

> <r_i_glide_metal>
0

> <r_i_glide_rewards>
0.162786720328895

> <r_i_glide_evdw>
-32.0017204284668

> <r_i_glide_ecoul>
-15.1396789550781

> <r_i_glide_erotb>
0.472124986767549

> <r_i_glide_esite>
-0.766769467461381

> <r_i_glide_emodel>
-74.5081569537726

> <r_i_glide_energy>
-47.1413993835449

> <r_i_glide_einternal>
9.43963623046875

> <i_i_glide_confnum>
142

> <i_i_glide_posenum>
266

> <r_i_glide_eff_state_penalty>
0

> <r_glide_res:A132_vdw>
-2.4629709167249

> <r_glide_res:A132_coul>
-78.1430077955875

> <r_glide_res:A132_hbond>
-0.247419969091123

> <r_glide_res:A132_dist>
1.86644084523889

> <r_glide_res:A132_Eint>
-80.8533986814035

> <r_glide_res:A117_vdw>
-1.31140254352951

> <r_glide_res:A117_coul>
35.6268982118234

> <r_glide_res:A117_hbond>
0

> <r_glide_res:A117_dist>
2.42043450172623

> <r_glide_res:A117_Eint>
34.3154956682938

> <r_glide_res:A113_vdw>
-5.1645403678224

> <r_glide_res:A113_coul>
27.3667428594509

> <r_glide_res:A113_hbond>
0

> <r_glide_res:A113_dist>
2.60182056024546

> <r_glide_res:A113_Eint>
22.2022024916285

> <r_glide_res:A82_vdw>
-2.27020013738903

> <r_glide_res:A82_coul>
-62.5074097736169

> <r_glide_res:A82_hbond>
-0.0485264444841978

> <r_glide_res:A82_dist>
2.26934569978636

> <r_glide_res:A82_Eint>
-64.8261363554901

> <r_glide_res:A42_vdw>
-1.14484898625364

> <r_glide_res:A42_coul>
-46.2254624169168

> <r_glide_res:A42_hbond>
0

> <r_glide_res:A42_dist>
2.81930960112941

> <r_glide_res:A42_Eint>
-47.3703114031704

> <r_glide_res:A16_vdw>
-0.219992734332661

> <r_glide_res:A16_coul>
-29.7128145700466

> <r_glide_res:A16_hbond>
0

> <r_glide_res:A16_dist>
4.73846737324194

> <r_glide_res:A16_Eint>
-29.9328073043793

> <s_m_source_file>
ligprep_Nicaido_neutral.maegz

> <i_m_source_file_index>
22

> <i_lp_mmshare_version>
58128

> <i_f3d_flags>
0

> <s_lp_Force_Field>
S-OPLS

> <r_lp_Energy>
109.903222

> <b_lp_Chiralities_Consistent>
1

> <s_lp_Variant>
Ceftriaxone-1

> <s_epik_input>
W09IXWMobjEpYyg9TyluYyhuMVtDSDNdKVNbQ0gyXUMoPUMyQyg9TylbT0hdKVtDSDJdU1tDQEhdKE4yMylbQ0BIXShDMz1PKVtOSF1DKD1PKS9DKD1OL09bQ0gzXSljNFtjSF1zYyhuNClbTkgyXQ==

> <s_epik_cmdline>
J2VwaWtfcHl0aG9uJywgJy1waHQnLCAnMC4wJywgJy1waCcsICc3LjQnLCAnLW50JywgJy1tYScsICc1MDAnLCAnLWltYWUnLCAnPGluZmlsZS5tYWU+JywgJy1vbWFlJywgJzxvdXRmaWxlLm1hZT4n

> <r_lp_tautomer_probability>
1

> <r_epik_Ionization_Penalty>
  0.0014

> <r_epik_Ionization_Penalty_Charging>
  0.0010

> <r_epik_Ionization_Penalty_Neutral>
  0.0004

> <r_epik_State_Penalty>
  0.0000

> <r_epik_Charging_Adjusted_Penalty>
0.000994184415634904

> <i_epik_Tot_Q>
-2

> <i_epik_Tot_abs_Q>
2

> <s_epik_Chemistry_Notes>
This compound has an imine and may undergo hydrolysis. This compound contains an acetal/aminal-like group ( X-CH(R)-Y where X, Y are N, S, or O) that may be acid/base labile, releasing an aldehyde.

> <s_m_subgroup_title>
glide-dock_Nicaido_neutral_pv1

> <s_m_subgroupid>
glide-dock_Nicaido_neutral_pv1

> <b_m_subgroup_collapsed>
0

$$$$
LY097964
                    3D
 Schrodinger Suite 2022-2.
 40 42  0  0  1  0            999 V2000
  -29.2278  -25.0576  -17.6106 C   0  0  0  0  0  0
  -28.5610  -24.3484  -18.6352 O   0  0  0  0  0  0
  -27.5715  -23.5713  -18.0146 N   0  0  0  0  0  0
  -27.1825  -22.5603  -18.6905 C   0  0  0  0  0  0
  -26.0631  -21.7124  -18.1952 C   0  0  0  0  0  0
  -25.1593  -22.1973  -17.2736 C   0  0  0  0  0  0
  -23.9635  -21.0134  -16.8266 S   0  0  0  0  0  0
  -24.7769  -19.8635  -17.8718 C   0  0  0  0  0  0
  -24.3675  -18.5480  -17.9727 N   0  0  0  0  0  0
  -25.8112  -20.3757  -18.5351 N   0  0  0  0  0  0
  -27.7395  -22.1331  -20.0323 C   0  0  0  0  0  0
  -29.0760  -21.9670  -20.0133 N   0  0  0  0  0  0
  -29.9976  -21.6201  -21.0950 C   0  0  1  0  0  0
  -29.6314  -20.3339  -21.8591 C   0  0  1  0  0  0
  -29.7462  -21.1278  -23.0689 N   0  0  0  0  0  0
  -29.7425  -22.3581  -22.4244 C   0  0  0  0  0  0
  -29.5691  -23.5036  -22.7943 O   0  0  0  0  0  0
  -29.5771  -20.5683  -24.3450 C   0  0  0  0  0  0
  -29.1925  -21.6002  -25.4393 C   0  0  0  0  0  0
  -29.9688  -21.6900  -26.4134 O   0  5  0  0  0  0
  -28.2015  -22.3340  -25.2134 O   0  0  0  0  0  0
  -29.6970  -19.2327  -24.5833 C   0  0  0  0  0  0
  -30.0761  -18.2153  -23.5092 C   0  0  0  0  0  0
  -30.7887  -18.9414  -22.0124 S   0  0  0  0  0  0
  -29.4223  -18.5656  -25.9265 C   0  0  0  0  0  0
  -27.0176  -22.0050  -21.0225 O   0  0  0  0  0  0
  -30.1086  -25.5494  -18.0144 H   0  0  0  0  0  0
  -28.5796  -25.8114  -17.1629 H   0  0  0  0  0  0
  -29.5690  -24.3828  -16.8248 H   0  0  0  0  0  0
  -25.1363  -23.1737  -16.8161 H   0  0  0  0  0  0
  -25.0414  -17.9008  -18.3586 H   0  0  0  0  0  0
  -23.7972  -18.1666  -17.2312 H   0  0  0  0  0  0
  -29.5394  -22.0713  -19.1142 H   0  0  0  0  0  0
  -31.0418  -21.6196  -20.7804 H   0  0  0  0  0  0
  -28.6079  -19.9823  -21.7122 H   0  0  0  0  0  0
  -29.1829  -17.6602  -23.2357 H   0  0  0  0  0  0
  -30.7899  -17.4935  -23.9074 H   0  0  0  0  0  0
  -28.5944  -17.8625  -25.8237 H   0  0  0  0  0  0
  -29.1622  -19.2569  -26.7246 H   0  0  0  0  0  0
  -30.2983  -18.0027  -26.2509 H   0  0  0  0  0  0
  1  2  1  0  0  0
  1 27  1  0  0  0
  1 28  1  0  0  0
  1 29  1  0  0  0
  2  3  1  0  0  0
  3  4  2  3  0  0
  4  5  1  0  0  0
  4 11  1  0  0  0
  5 10  1  0  0  0
  5  6  2  0  0  0
  6  7  1  0  0  0
  6 30  1  0  0  0
  7  8  1  0  0  0
  8  9  1  0  0  0
  8 10  2  0  0  0
  9 31  1  0  0  0
  9 32  1  0  0  0
 11 12  1  0  0  0
 11 26  2  0  0  0
 12 13  1  0  0  0
 12 33  1  0  0  0
 13 16  1  0  0  0
 13 14  1  0  0  0
 13 34  1  0  0  0
 14 24  1  0  0  0
 14 15  1  0  0  0
 14 35  1  0  0  0
 15 16  1  0  0  0
 15 18  1  0  0  0
 16 17  2  0  0  0
 18 19  1  0  0  0
 18 22  2  0  0  0
 19 20  1  0  0  0
 19 21  2  0  0  0
 22 23  1  0  0  0
 22 25  1  0  0  0
 23 24  1  0  0  0
 23 36  1  0  0  0
 23 37  1  0  0  0
 25 38  1  0  0  0
 25 39  1  0  0  0
 25 40  1  0  0  0
M  CHG  1  20  -1
M  END
> <s_m_entry_id>
27544

> <s_m_entry_name>
data_maestro.7

> <s_m_Source_Path>
C:\Users\olshana1\Git\GramNeg-Accumulation\Gram Negative Permeation - OmpF

> <s_m_Source_File>
data_maestro.csv

> <i_m_Source_File_Index>
7

> <s_m_job_name>
glide-dock_Nicaido_neutral

> <s_i_glide_gridfile>
3POX-grid

> <i_i_glide_lignum>
10

> <i_i_glide_rotatable_bonds>
6

> <r_i_docking_score>
-4.69313868029908

> <r_i_glide_ligand_efficiency>
-0.180505333857657

> <r_i_glide_ligand_efficiency_sa>
-0.534746341299116

> <r_i_glide_ligand_efficiency_ln>
-1.10216821962419

> <r_i_glide_gscore>
-4.69313868029908

> <r_i_glide_lipo>
0

> <r_i_glide_hbond>
-0.861930522461674

> <r_i_glide_metal>
0

> <r_i_glide_rewards>
-0.645188939693735

> <r_i_glide_evdw>
-32.7159576416016

> <r_i_glide_ecoul>
-9.95063495635986

> <r_i_glide_erotb>
0.622478626066327

> <r_i_glide_esite>
-0.680104718675934

> <r_i_glide_emodel>
-60.2442857449477

> <r_i_glide_energy>
-42.6665925979614

> <r_i_glide_einternal>
9.5647668838501

> <i_i_glide_confnum>
7

> <i_i_glide_posenum>
320

> <r_i_glide_eff_state_penalty>
0

> <r_glide_res:A132_vdw>
-2.08235988731173

> <r_glide_res:A132_coul>
-28.1769671526837

> <r_glide_res:A132_hbond>
0

> <r_glide_res:A132_dist>
2.32402681412289

> <r_glide_res:A132_Eint>
-30.2593270399954

> <r_glide_res:A117_vdw>
-3.21992454375854

> <r_glide_res:A117_coul>
26.3804016158774

> <r_glide_res:A117_hbond>
0

> <r_glide_res:A117_dist>
2.22772309159103

> <r_glide_res:A117_Eint>
23.1604770721189

> <r_glide_res:A113_vdw>
-3.103352349845

> <r_glide_res:A113_coul>
12.2706483179043

> <r_glide_res:A113_hbond>
-0.146892462324474

> <r_glide_res:A113_dist>
1.96368089331591

> <r_glide_res:A113_Eint>
9.02040350573487

> <r_glide_res:A82_vdw>
-1.59990249614106

> <r_glide_res:A82_coul>
-40.1121513940478

> <r_glide_res:A82_hbond>
-0.0826737159528437

> <r_glide_res:A82_dist>
2.29331571011789

> <r_glide_res:A82_Eint>
-41.7947276061417

> <r_glide_res:A42_vdw>
1.58187339490555

> <r_glide_res:A42_coul>
-55.8880510447318

> <r_glide_res:A42_hbond>
-0.432364344184356

> <r_glide_res:A42_dist>
1.78081163973055

> <r_glide_res:A42_Eint>
-54.7385419940106

> <r_glide_res:A16_vdw>
0.12843072466172

> <r_glide_res:A16_coul>
-49.1148685094124

> <r_glide_res:A16_hbond>
-0.2

> <r_glide_res:A16_dist>
1.81543259885759

> <r_glide_res:A16_Eint>
-49.1864377847507

> <s_m_source_file>
ligprep_Nicaido_neutral.maegz

> <i_m_source_file_index>
7

> <i_lp_mmshare_version>
58128

> <i_f3d_flags>
0

> <s_lp_Force_Field>
S-OPLS

> <r_lp_Energy>
53.916069

> <b_lp_Chiralities_Consistent>
1

> <s_lp_Variant>
LY097964-2

> <s_epik_input>
W05IMl1jKG4xKXNbY0hdYzEvQyg9TlxPW0NIM10pQyg9TylbTkhdW0NAQEhdMkMoPU8pTihbQ0BIXTIzKUMoQyg9TylbT0hdKT1DKFtDSDJdUzMpW0NIM10=

> <s_epik_cmdline>
J2VwaWtfcHl0aG9uJywgJy1waHQnLCAnMC4wJywgJy1waCcsICc3LjQnLCAnLW50JywgJy1tYScsICc1MDAnLCAnLWltYWUnLCAnPGluZmlsZS5tYWU+JywgJy1vbWFlJywgJzxvdXRmaWxlLm1hZT4n

> <r_lp_tautomer_probability>
1

> <r_epik_Ionization_Penalty>
  0.0005

> <r_epik_Ionization_Penalty_Charging>
  0.0000

> <r_epik_Ionization_Penalty_Neutral>
  0.0005

> <r_epik_State_Penalty>
  0.0000

> <r_epik_Charging_Adjusted_Penalty>
1.64985111359435e-05

> <i_epik_Tot_Q>
-1

> <i_epik_Tot_abs_Q>
1

> <s_epik_Chemistry_Notes>
This compound has an imine and may undergo hydrolysis. This compound contains an acetal/aminal-like group ( X-CH(R)-Y where X, Y are N, S, or O) that may be acid/base labile, releasing an aldehyde.

> <s_m_subgroup_title>
glide-dock_Nicaido_neutral_pv1

> <s_m_subgroupid>
glide-dock_Nicaido_neutral_pv1

> <b_m_subgroup_collapsed>
0

$$$$
Carbenicillin
                    3D
 Schrodinger Suite 2022-2.
 42 44  0  0  1  0            999 V2000
  -22.4863  -22.9230  -19.8960 C   0  0  0  0  0  0
  -22.3050  -22.4535  -21.3544 C   0  0  0  0  0  0
  -23.0545  -23.3163  -22.4297 C   0  0  2  0  0  0
  -24.3341  -22.6606  -22.5684 N   0  0  0  0  0  0
  -24.4654  -21.2163  -22.5628 C   0  0  2  0  0  0
  -23.0749  -20.7858  -21.4638 S   0  0  0  0  0  0
  -25.9253  -21.4095  -22.1229 C   0  0  2  0  0  0
  -25.6630  -22.9171  -22.3189 C   0  0  0  0  0  0
  -26.3021  -23.9485  -22.2487 O   0  0  0  0  0  0
  -26.9281  -20.8271  -23.0254 N   0  0  0  0  0  0
  -27.0764  -20.9898  -24.3552 C   0  0  0  0  0  0
  -28.3790  -20.4757  -25.0154 C   0  0  2  0  0  0
  -29.3504  -19.7965  -24.0541 C   0  0  0  0  0  0
  -29.6750  -18.4494  -24.2882 C   0  0  0  0  0  0
  -30.5489  -17.7819  -23.4217 C   0  0  0  0  0  0
  -31.1050  -18.4393  -22.3088 C   0  0  0  0  0  0
  -30.7961  -19.7900  -22.0721 C   0  0  0  0  0  0
  -29.9302  -20.4703  -22.9482 C   0  0  0  0  0  0
  -29.1060  -21.6705  -25.6573 C   0  0  0  0  0  0
  -29.1686  -22.7518  -25.0353 O   0  5  0  0  0  0
  -29.5688  -21.5435  -26.8134 O   0  0  0  0  0  0
  -26.2283  -21.5492  -25.0520 O   0  0  0  0  0  0
  -23.1298  -24.8463  -22.2428 C   0  0  0  0  0  0
  -23.5688  -25.3110  -21.1685 O   0  5  0  0  0  0
  -22.7690  -25.5494  -23.2133 O   0  0  0  0  0  0
  -20.8044  -22.3593  -21.6792 C   0  0  0  0  0  0
  -21.9868  -23.8739  -19.7100 H   0  0  0  0  0  0
  -22.0667  -22.1990  -19.1965 H   0  0  0  0  0  0
  -23.5413  -23.0423  -19.6455 H   0  0  0  0  0  0
  -22.5673  -23.1488  -23.3915 H   0  0  0  0  0  0
  -24.3275  -20.7670  -23.5472 H   0  0  0  0  0  0
  -26.0756  -21.1226  -21.0817 H   0  0  0  0  0  0
  -27.6646  -20.3019  -22.5721 H   0  0  0  0  0  0
  -28.0919  -19.7804  -25.8054 H   0  0  0  0  0  0
  -29.2480  -17.9172  -25.1260 H   0  0  0  0  0  0
  -30.7731  -16.7482  -23.6135 H   0  0  0  0  0  0
  -31.7609  -17.9059  -21.6362 H   0  0  0  0  0  0
  -31.2140  -20.2974  -21.2134 H   0  0  0  0  0  0
  -29.6992  -21.5077  -22.7538 H   0  0  0  0  0  0
  -20.3309  -23.3411  -21.6436 H   0  0  0  0  0  0
  -20.6380  -21.9455  -22.6746 H   0  0  0  0  0  0
  -20.2871  -21.7140  -20.9683 H   0  0  0  0  0  0
  1  2  1  0  0  0
  1 27  1  0  0  0
  1 28  1  0  0  0
  1 29  1  0  0  0
  2  6  1  0  0  0
  2  3  1  0  0  0
  2 26  1  0  0  0
  3  4  1  0  0  0
  3 23  1  0  0  0
  3 30  1  0  0  0
  4  8  1  0  0  0
  4  5  1  0  0  0
  5  6  1  0  0  0
  5  7  1  0  0  0
  5 31  1  0  0  0
  7  8  1  0  0  0
  7 10  1  0  0  0
  7 32  1  0  0  0
  8  9  2  0  0  0
 10 11  1  0  0  0
 10 33  1  0  0  0
 11 12  1  0  0  0
 11 22  2  0  0  0
 12 13  1  0  0  0
 12 19  1  0  0  0
 12 34  1  0  0  0
 13 18  1  0  0  0
 13 14  2  0  0  0
 14 15  1  0  0  0
 14 35  1  0  0  0
 15 16  2  0  0  0
 15 36  1  0  0  0
 16 17  1  0  0  0
 16 37  1  0  0  0
 17 18  2  0  0  0
 17 38  1  0  0  0
 18 39  1  0  0  0
 19 20  1  0  0  0
 19 21  2  0  0  0
 23 24  1  0  0  0
 23 25  2  0  0  0
 26 40  1  0  0  0
 26 41  1  0  0  0
 26 42  1  0  0  0
M  CHG  2  20  -1  24  -1
M  END
> <s_m_entry_id>
27545

> <s_m_entry_name>
data_maestro.24

> <s_m_Source_Path>
C:\Users\olshana1\Git\GramNeg-Accumulation\Gram Negative Permeation - OmpF

> <s_m_Source_File>
data_maestro.csv

> <i_m_Source_File_Index>
24

> <s_m_job_name>
glide-dock_Nicaido_neutral

> <s_i_glide_gridfile>
3POX-grid

> <i_i_glide_lignum>
31

> <i_i_glide_rotatable_bonds>
6

> <r_i_docking_score>
-4.68251880614199

> <r_i_glide_ligand_efficiency>
-0.180096877159307

> <r_i_glide_ligand_efficiency_sa>
-0.533536289937455

> <r_i_glide_ligand_efficiency_ln>
-1.09967417702505

> <r_i_glide_gscore>
-4.68251880614199

> <r_i_glide_lipo>
0

> <r_i_glide_hbond>
-0.967204740316771

> <r_i_glide_metal>
0

> <r_i_glide_rewards>
-0.837855977809674

> <r_i_glide_evdw>
-13.4434375762939

> <r_i_glide_ecoul>
-14.6506538391113

> <r_i_glide_erotb>
0.409918473255716

> <r_i_glide_esite>
-0.417606606589864

> <r_i_glide_emodel>
-51.0738069392344

> <r_i_glide_energy>
-28.0940914154053

> <r_i_glide_einternal>
7.49105882644653

> <i_i_glide_confnum>
7

> <i_i_glide_posenum>
152

> <r_i_glide_eff_state_penalty>
0

> <r_glide_res:A132_vdw>
-0.300284281434505

> <r_glide_res:A132_coul>
-65.6325120627491

> <r_glide_res:A132_hbond>
-0.0612465715353887

> <r_glide_res:A132_dist>
2.24991757989374

> <r_glide_res:A132_Eint>
-65.994042915719

> <r_glide_res:A117_vdw>
-3.84370196688031

> <r_glide_res:A117_coul>
41.2022611196336

> <r_glide_res:A117_hbond>
0

> <r_glide_res:A117_dist>
2.30644026113677

> <r_glide_res:A117_Eint>
37.3585591527533

> <r_glide_res:A113_vdw>
-1.53865713229835

> <r_glide_res:A113_coul>
35.9783627781548

> <r_glide_res:A113_hbond>
0

> <r_glide_res:A113_dist>
2.61114490614122

> <r_glide_res:A113_Eint>
34.4397056458564

> <r_glide_res:A82_vdw>
-2.00318402368682

> <r_glide_res:A82_coul>
-68.4319414210607

> <r_glide_res:A82_hbond>
-0.15301599652533

> <r_glide_res:A82_dist>
2.11296197944528

> <r_glide_res:A82_Eint>
-70.5881414412729

> <r_glide_res:A42_vdw>
1.34879602789702

> <r_glide_res:A42_coul>
-79.4664759052256

> <r_glide_res:A42_hbond>
-0.384808339501172

> <r_glide_res:A42_dist>
1.81213135805367

> <r_glide_res:A42_Eint>
-78.5024882168297

> <r_glide_res:A16_vdw>
4.48968549267042

> <r_glide_res:A16_coul>
-70.2653898173077

> <r_glide_res:A16_hbond>
-0.170799626564979

> <r_glide_res:A16_dist>
1.54159925312996

> <r_glide_res:A16_Eint>
-65.9465039512023

> <s_m_source_file>
ligprep_Nicaido_neutral.maegz

> <i_m_source_file_index>
24

> <i_lp_mmshare_version>
58128

> <i_f3d_flags>
0

> <s_lp_Force_Field>
S-OPLS

> <r_lp_Energy>
37.112724

> <b_lp_Chiralities_Consistent>
1

> <s_lp_Variant>
Carbenicillin-1

> <s_epik_input>
W09IXUMoPU8pW0NAQEhdMUMoW0NIM10pKFtDSDNdKVNbQ0BASF0oTjEyKVtDQEhdKEMyPU8pW05IXUMoPU8pW0NAQEhdKEMoPU8pW09IXSljM1tjSF1bY0hdW2NIXVtjSF1bY0hdMw==

> <s_epik_cmdline>
J2VwaWtfcHl0aG9uJywgJy1waHQnLCAnMC4wJywgJy1waCcsICc3LjQnLCAnLW50JywgJy1tYScsICc1MDAnLCAnLWltYWUnLCAnPGluZmlsZS5tYWU+JywgJy1vbWFlJywgJzxvdXRmaWxlLm1hZT4n

> <r_lp_tautomer_probability>
1

> <r_epik_Ionization_Penalty>
  0.0000

> <r_epik_Ionization_Penalty_Charging>
  0.0000

> <r_epik_Ionization_Penalty_Neutral>
  0.0000

> <r_epik_State_Penalty>
  0.0000

> <r_epik_Charging_Adjusted_Penalty>
4.98035685666923e-05

> <i_epik_Tot_Q>
-2

> <i_epik_Tot_abs_Q>
2

> <s_epik_Chemistry_Notes>
This compound contains an acetal/aminal-like group ( X-CH(R)-Y where X, Y are N, S, or O) that may be acid/base labile, releasing an aldehyde.

> <s_m_subgroup_title>
glide-dock_Nicaido_neutral_pv1

> <s_m_subgroupid>
glide-dock_Nicaido_neutral_pv1

> <b_m_subgroup_collapsed>
0

$$$$
Cefazolin
                    3D
 Schrodinger Suite 2022-2.
 42 45  0  0  1  0            999 V2000
  -23.4494  -22.4251  -15.2813 C   0  0  0  0  0  0
  -23.8832  -22.3170  -16.6949 C   0  0  0  0  0  0
  -23.8490  -23.3573  -17.5369 N   0  0  0  0  0  0
  -24.2915  -23.0121  -18.8041 N   0  0  0  0  0  0
  -24.6443  -21.7222  -18.8759 C   0  0  0  0  0  0
  -24.4575  -20.8105  -17.3901 S   0  0  0  0  0  0
  -25.3092  -20.9732  -20.3115 S   0  0  0  0  0  0
  -26.8700  -21.8877  -20.2837 C   0  0  0  0  0  0
  -27.9053  -21.3306  -21.2486 C   0  0  0  0  0  0
  -28.2342  -21.9209  -22.4271 C   0  0  0  0  0  0
  -29.2598  -21.4271  -23.2493 N   0  0  0  0  0  0
  -30.3240  -20.5909  -22.7272 C   0  0  2  0  0  0
  -30.9076  -20.5470  -24.1523 C   0  0  2  0  0  0
  -29.8296  -21.6131  -24.4951 C   0  0  0  0  0  0
  -29.5689  -22.3495  -25.4249 O   0  0  0  0  0  0
  -30.7565  -19.2113  -24.7360 N   0  0  0  0  0  0
  -30.3609  -18.8782  -25.9725 C   0  0  0  0  0  0
  -30.4624  -17.4062  -26.3365 C   0  0  0  0  0  0
  -31.6302  -17.1496  -27.1624 N   0  0  0  0  0  0
  -32.7426  -16.4552  -26.9094 C   0  0  0  0  0  0
  -33.5646  -16.4511  -27.9484 N   0  0  0  0  0  0
  -32.8826  -17.1999  -28.8920 N   0  0  0  0  0  0
  -31.7315  -17.6103  -28.4357 N   0  0  0  0  0  0
  -29.9689  -19.6820  -26.8131 O   0  0  0  0  0  0
  -29.5688  -19.1495  -21.9247 S   0  0  0  0  0  0
  -28.5549  -20.0519  -20.7237 C   0  0  0  0  0  0
  -27.4576  -23.1495  -22.9871 C   0  0  0  0  0  0
  -26.7709  -22.9645  -24.0134 O   0  5  0  0  0  0
  -27.6364  -24.2497  -22.4130 O   0  0  0  0  0  0
  -22.6401  -23.1491  -15.2136 H   0  0  0  0  0  0
  -23.0932  -21.4613  -14.9188 H   0  0  0  0  0  0
  -24.2843  -22.7499  -14.6609 H   0  0  0  0  0  0
  -27.2883  -21.8384  -19.2769 H   0  0  0  0  0  0
  -26.6566  -22.9405  -20.4555 H   0  0  0  0  0  0
  -30.9517  -21.1463  -22.0266 H   0  0  0  0  0  0
  -31.9340  -20.9130  -24.1814 H   0  0  0  0  0  0
  -30.9796  -18.4506  -24.1083 H   0  0  0  0  0  0
  -29.5649  -17.0762  -26.8623 H   0  0  0  0  0  0
  -30.5422  -16.8282  -25.4165 H   0  0  0  0  0  0
  -32.9434  -15.9534  -25.9742 H   0  0  0  0  0  0
  -29.1689  -20.3357  -19.8776 H   0  0  0  0  0  0
  -27.7963  -19.3653  -20.3466 H   0  0  0  0  0  0
  1  2  1  0  0  0
  1 30  1  0  0  0
  1 31  1  0  0  0
  1 32  1  0  0  0
  2  6  1  0  0  0
  2  3  2  0  0  0
  3  4  1  0  0  0
  4  5  2  0  0  0
  5  6  1  0  0  0
  5  7  1  0  0  0
  7  8  1  0  0  0
  8  9  1  0  0  0
  8 33  1  0  0  0
  8 34  1  0  0  0
  9 26  1  0  0  0
  9 10  2  0  0  0
 10 11  1  0  0  0
 10 27  1  0  0  0
 11 14  1  0  0  0
 11 12  1  0  0  0
 12 13  1  0  0  0
 12 25  1  0  0  0
 12 35  1  0  0  0
 13 14  1  0  0  0
 13 16  1  0  0  0
 13 36  1  0  0  0
 14 15  2  0  0  0
 16 17  1  0  0  0
 16 37  1  0  0  0
 17 18  1  0  0  0
 17 24  2  0  0  0
 18 19  1  0  0  0
 18 38  1  0  0  0
 18 39  1  0  0  0
 19 23  1  0  0  0
 19 20  1  0  0  0
 20 21  2  0  0  0
 20 40  1  0  0  0
 21 22  1  0  0  0
 22 23  2  0  0  0
 25 26  1  0  0  0
 26 41  1  0  0  0
 26 42  1  0  0  0
 27 28  1  0  0  0
 27 29  2  0  0  0
M  CHG  1  28  -1
M  END
> <s_m_entry_id>
27546

> <s_m_entry_name>
data_maestro.2

> <s_m_Source_Path>
C:\Users\olshana1\Git\GramNeg-Accumulation\Gram Negative Permeation - OmpF

> <s_m_Source_File>
data_maestro.csv

> <i_m_Source_File_Index>
2

> <s_m_job_name>
glide-dock_Nicaido_neutral

> <s_i_glide_gridfile>
3POX-grid

> <i_i_glide_lignum>
2

> <i_i_glide_rotatable_bonds>
8

> <r_i_docking_score>
-4.6787406671993

> <r_i_glide_ligand_efficiency>
-0.161335885075838

> <r_i_glide_ligand_efficiency_sa>
-0.495674953749053

> <r_i_glide_ligand_efficiency_ln>
-1.07131297016208

> <r_i_glide_gscore>
-4.6787406671993

> <r_i_glide_lipo>
0

> <r_i_glide_hbond>
-0.5952115327728

> <r_i_glide_metal>
0

> <r_i_glide_rewards>
-0.316763064649947

> <r_i_glide_evdw>
-29.7190856933594

> <r_i_glide_ecoul>
-15.1618156433105

> <r_i_glide_erotb>
0.585623573400065

> <r_i_glide_esite>
-0.592163012012065

> <r_i_glide_emodel>
-68.055132941871

> <r_i_glide_energy>
-44.8809013366699

> <r_i_glide_einternal>
5.76049900054932

> <i_i_glide_confnum>
42

> <i_i_glide_posenum>
137

> <r_i_glide_eff_state_penalty>
0

> <r_glide_res:A132_vdw>
-1.35690311389888

> <r_glide_res:A132_coul>
-37.5711749526467

> <r_glide_res:A132_hbond>
-0.00373260840308688

> <r_glide_res:A132_dist>
2.47354004917693

> <r_glide_res:A132_Eint>
-38.9318106749487

> <r_glide_res:A117_vdw>
-3.67029131123018

> <r_glide_res:A117_coul>
23.602238697954

> <r_glide_res:A117_hbond>
0

> <r_glide_res:A117_dist>
2.53291506920237

> <r_glide_res:A117_Eint>
19.9319473867238

> <r_glide_res:A113_vdw>
-1.63402408954135

> <r_glide_res:A113_coul>
16.1987705261103

> <r_glide_res:A113_hbond>
0

> <r_glide_res:A113_dist>
2.15654356026643

> <r_glide_res:A113_Eint>
14.5647464365689

> <r_glide_res:A82_vdw>
2.1078179916206

> <r_glide_res:A82_coul>
-50.9283336339295

> <r_glide_res:A82_hbond>
-0.236043002820453

> <r_glide_res:A82_dist>
1.65593858442561

> <r_glide_res:A82_Eint>
-49.0565586451294

> <r_glide_res:A42_vdw>
-0.729323290520217

> <r_glide_res:A42_coul>
-49.7256570553345

> <r_glide_res:A42_hbond>
-0.281131424718854

> <r_glide_res:A42_dist>
1.87144572159338

> <r_glide_res:A42_Eint>
-50.7361117705736

> <r_glide_res:A16_vdw>
0.516323932015153

> <r_glide_res:A16_coul>
-39.3408654253624

> <r_glide_res:A16_hbond>
-0.0743044968304063

> <r_glide_res:A16_dist>
1.99959225786485

> <r_glide_res:A16_Eint>
-38.8988459901777

> <s_m_source_file>
ligprep_Nicaido_neutral.maegz

> <i_m_source_file_index>
2

> <i_lp_mmshare_version>
58128

> <i_f3d_flags>
0

> <s_lp_Force_Field>
S-OPLS

> <r_lp_Energy>
37.420105

> <b_lp_Chiralities_Consistent>
1

> <s_lp_Variant>
Cefazolin-1

> <s_epik_input>
W0NIM11jMW5uYyhzMSlTW0NIMl1DKD1DMkMoPU8pW09IXSlbQ0gyXVNbQ0BIXShOMjMpW0NASF0oQzM9TylbTkhdQyg9TylbQ0gyXW40W2NIXW5ubjQ=

> <s_epik_cmdline>
J2VwaWtfcHl0aG9uJywgJy1waHQnLCAnMC4wJywgJy1waCcsICc3LjQnLCAnLW50JywgJy1tYScsICc1MDAnLCAnLWltYWUnLCAnPGluZmlsZS5tYWU+JywgJy1vbWFlJywgJzxvdXRmaWxlLm1hZT4n

> <r_lp_tautomer_probability>
1

> <r_epik_Ionization_Penalty>
  0.0000

> <r_epik_Ionization_Penalty_Charging>
  0.0000

> <r_epik_Ionization_Penalty_Neutral>
  0.0000

> <r_epik_State_Penalty>
  0.0000

> <r_epik_Charging_Adjusted_Penalty>
8.33047029083912e-06

> <i_epik_Tot_Q>
-1

> <i_epik_Tot_abs_Q>
1

> <s_epik_Chemistry_Notes>
This compound contains an acetal/aminal-like group ( X-CH(R)-Y where X, Y are N, S, or O) that may be acid/base labile, releasing an aldehyde.

> <s_m_subgroup_title>
glide-dock_Nicaido_neutral_pv1

> <s_m_subgroupid>
glide-dock_Nicaido_neutral_pv1

> <b_m_subgroup_collapsed>
0

$$$$
Aztreonam
                    3D
 Schrodinger Suite 2022-2.
 43 44  0  0  1  0            999 V2000
  -29.6974  -20.3820  -22.1066 C   0  0  0  0  0  0
  -28.8504  -19.8793  -23.2832 C   0  0  1  0  0  0
  -27.3142  -20.0750  -23.2800 C   0  0  2  0  0  0
  -27.5160  -20.7555  -24.6537 C   0  0  0  0  0  0
  -28.8794  -20.7459  -24.4606 N   0  0  0  0  0  0
  -30.2235  -21.0286  -25.4144 S   0  0  0  0  0  0
  -31.3816  -21.0127  -24.5125 O   0  0  0  0  0  0
  -29.9680  -22.3493  -26.0122 O   0  5  0  0  0  0
  -30.2185  -19.9499  -26.4129 O   0  0  0  0  0  0
  -26.8253  -21.1495  -25.5694 O   0  0  0  0  0  0
  -26.8629  -21.0090  -22.2446 N   0  0  0  0  0  0
  -25.6467  -21.5868  -22.2109 C   0  0  0  0  0  0
  -25.5010  -22.6990  -21.1621 C   0  0  0  0  0  0
  -26.5860  -22.7826  -20.1620 C   0  0  0  0  0  0
  -26.6184  -21.9729  -19.0499 C   0  0  0  0  0  0
  -27.9687  -22.3485  -18.0135 S   0  0  0  0  0  0
  -28.4515  -23.5820  -19.1650 C   0  0  0  0  0  0
  -29.5822  -24.3494  -18.9782 N   0  0  0  0  0  0
  -27.6383  -23.7040  -20.2131 N   0  0  0  0  0  0
  -24.5806  -23.5799  -21.0805 N   0  0  0  0  0  0
  -23.5749  -23.4812  -22.0603 O   0  0  0  0  0  0
  -22.6019  -24.5242  -21.9160 C   0  0  0  0  0  0
  -23.1688  -25.8806  -22.4112 C   0  0  0  0  0  0
  -23.1690  -26.8590  -21.6291 O   0  5  0  0  0  0
  -23.5769  -25.9460  -23.5943 O   0  0  0  0  0  0
  -21.4646  -24.0956  -22.8624 C   0  0  0  0  0  0
  -22.0493  -24.6199  -20.4697 C   0  0  0  0  0  0
  -24.7482  -21.2797  -22.9942 O   0  0  0  0  0  0
  -29.4045  -19.8933  -21.1761 H   0  0  0  0  0  0
  -30.7549  -20.1604  -22.2467 H   0  0  0  0  0  0
  -29.6042  -21.4579  -21.9571 H   0  0  0  0  0  0
  -29.1039  -18.8570  -23.5742 H   0  0  0  0  0  0
  -26.7623  -19.1357  -23.3022 H   0  0  0  0  0  0
  -27.5505  -21.2746  -21.5544 H   0  0  0  0  0  0
  -25.9310  -21.1894  -18.7637 H   0  0  0  0  0  0
  -30.0294  -24.6658  -19.8242 H   0  0  0  0  0  0
  -30.2619  -23.8428  -18.4135 H   0  0  0  0  0  0
  -20.6424  -24.8111  -22.8527 H   0  0  0  0  0  0
  -21.8124  -23.9834  -23.8902 H   0  0  0  0  0  0
  -21.0581  -23.1301  -22.5601 H   0  0  0  0  0  0
  -21.2039  -25.3060  -20.4162 H   0  0  0  0  0  0
  -21.7055  -23.6459  -20.1207 H   0  0  0  0  0  0
  -22.7969  -24.9783  -19.7611 H   0  0  0  0  0  0
  1  2  1  0  0  0
  1 29  1  0  0  0
  1 30  1  0  0  0
  1 31  1  0  0  0
  2  5  1  0  0  0
  2  3  1  0  0  0
  2 32  1  0  0  0
  3  4  1  0  0  0
  3 11  1  0  0  0
  3 33  1  0  0  0
  4  5  1  0  0  0
  4 10  2  0  0  0
  5  6  1  0  0  0
  6  7  2  0  0  0
  6  8  1  0  0  0
  6  9  2  0  0  0
 11 12  1  0  0  0
 11 34  1  0  0  0
 12 13  1  0  0  0
 12 28  2  0  0  0
 13 14  1  0  0  0
 13 20  2  3  0  0
 14 19  1  0  0  0
 14 15  2  0  0  0
 15 16  1  0  0  0
 15 35  1  0  0  0
 16 17  1  0  0  0
 17 18  1  0  0  0
 17 19  2  0  0  0
 18 36  1  0  0  0
 18 37  1  0  0  0
 20 21  1  0  0  0
 21 22  1  0  0  0
 22 23  1  0  0  0
 22 26  1  0  0  0
 22 27  1  0  0  0
 23 24  1  0  0  0
 23 25  2  0  0  0
 26 38  1  0  0  0
 26 39  1  0  0  0
 26 40  1  0  0  0
 27 41  1  0  0  0
 27 42  1  0  0  0
 27 43  1  0  0  0
M  CHG  2   8  -1  24  -1
M  END
> <s_m_entry_id>
27547

> <s_m_entry_name>
data_maestro.21

> <s_m_Source_Path>
C:\Users\olshana1\Git\GramNeg-Accumulation\Gram Negative Permeation - OmpF

> <s_m_Source_File>
data_maestro.csv

> <i_m_Source_File_Index>
21

> <s_m_job_name>
glide-dock_Nicaido_neutral

> <s_i_glide_gridfile>
3POX-grid

> <i_i_glide_lignum>
27

> <i_i_glide_rotatable_bonds>
8

> <r_i_docking_score>
-4.67862545620065

> <r_i_glide_ligand_efficiency>
-0.16709376629288

> <r_i_glide_ligand_efficiency_sa>
-0.507395087430548

> <r_i_glide_ligand_efficiency_ln>
-1.07996412570362

> <r_i_glide_gscore>
-4.67862545620065

> <r_i_glide_lipo>
0

> <r_i_glide_hbond>
-0.924780228705792

> <r_i_glide_metal>
0

> <r_i_glide_rewards>
-0.452872691844197

> <r_i_glide_evdw>
-21.9884281158447

> <r_i_glide_ecoul>
-13.5992517471313

> <r_i_glide_erotb>
0.635830109179744

> <r_i_glide_esite>
-0.797493476968465

> <r_i_glide_emodel>
-62.3469305531141

> <r_i_glide_energy>
-35.5876798629761

> <r_i_glide_einternal>
3.73168611526489

> <i_i_glide_confnum>
11

> <i_i_glide_posenum>
220

> <r_i_glide_eff_state_penalty>
0

> <r_glide_res:A132_vdw>
-1.27721624484426

> <r_glide_res:A132_coul>
-66.4357550375064

> <r_glide_res:A132_hbond>
-0.319528202783935

> <r_glide_res:A132_dist>
2.03145133060202

> <r_glide_res:A132_Eint>
-68.0324994851346

> <r_glide_res:A117_vdw>
-2.79356119607305

> <r_glide_res:A117_coul>
41.2463190086924

> <r_glide_res:A117_hbond>
0

> <r_glide_res:A117_dist>
2.54804427858876

> <r_glide_res:A117_Eint>
38.4527578126193

> <r_glide_res:A113_vdw>
-2.22213497121644

> <r_glide_res:A113_coul>
27.2989669701464

> <r_glide_res:A113_hbond>
-0.14089239984881

> <r_glide_res:A113_dist>
2.10691180873687

> <r_glide_res:A113_Eint>
24.9359395990812

> <r_glide_res:A82_vdw>
-2.27795682390487

> <r_glide_res:A82_coul>
-62.2285677327164

> <r_glide_res:A82_hbond>
0

> <r_glide_res:A82_dist>
2.8473591738506

> <r_glide_res:A82_Eint>
-64.5065245566213

> <r_glide_res:A42_vdw>
0.801102538447964

> <r_glide_res:A42_coul>
-72.3100985004275

> <r_glide_res:A42_hbond>
-0.342425009972606

> <r_glide_res:A42_dist>
1.77059501931222

> <r_glide_res:A42_Eint>
-71.8514209719521

> <r_glide_res:A16_vdw>
-0.551547577337638

> <r_glide_res:A16_coul>
-65.2520498707956

> <r_glide_res:A16_hbond>
-0.0294719534380148

> <r_glide_res:A16_dist>
2.0938642134342

> <r_glide_res:A16_Eint>
-65.8330694015713

> <s_m_source_file>
ligprep_Nicaido_neutral.maegz

> <i_m_source_file_index>
21

> <i_lp_mmshare_version>
58128

> <i_f3d_flags>
0

> <s_lp_Force_Field>
S-OPLS

> <r_lp_Energy>
50.237147

> <b_lp_Chiralities_Consistent>
1

> <s_lp_Variant>
Aztreonam-2

> <s_epik_input>
Tz1TKD1PKShbT0hdKU4xQyg9TylbQ0BASF0oW0NAQEhdMVtDSDNdKVtOSF1DKD1PKS9DKGMyW2NIXXNjKG4yKVtOSDJdKT1OL09DKFtDSDNdKShbQ0gzXSlDKD1PKVtPSF0=

> <s_epik_cmdline>
J2VwaWtfcHl0aG9uJywgJy1waHQnLCAnMC4wJywgJy1waCcsICc3LjQnLCAnLW50JywgJy1tYScsICc1MDAnLCAnLWltYWUnLCAnPGluZmlsZS5tYWU+JywgJy1vbWFlJywgJzxvdXRmaWxlLm1hZT4n

> <r_lp_tautomer_probability>
1

> <r_epik_Ionization_Penalty>
  0.0004

> <r_epik_Ionization_Penalty_Charging>
  0.0000

> <r_epik_Ionization_Penalty_Neutral>
  0.0004

> <r_epik_State_Penalty>
  0.0000

> <r_epik_Charging_Adjusted_Penalty>
4.45674509427693e-05

> <i_epik_Tot_Q>
-2

> <i_epik_Tot_abs_Q>
2

> <s_epik_Chemistry_Notes>
This compound has an imine and may undergo hydrolysis.

> <s_m_subgroup_title>
glide-dock_Nicaido_neutral_pv1

> <s_m_subgroupid>
glide-dock_Nicaido_neutral_pv1

> <b_m_subgroup_collapsed>
0

$$$$
LY097964
                    3D
 Schrodinger Suite 2022-2.
 40 42  0  0  1  0            999 V2000
  -24.3880  -24.7500  -17.5221 C   0  0  0  0  0  0
  -25.1295  -24.3005  -18.6359 O   0  0  0  0  0  0
  -24.7326  -22.9815  -18.8861 N   0  0  0  0  0  0
  -25.5790  -22.2854  -19.5384 C   0  0  0  0  0  0
  -25.2611  -20.8539  -19.7859 C   0  0  0  0  0  0
  -25.1869  -19.9506  -18.7506 C   0  0  0  0  0  0
  -24.7699  -18.3510  -19.3064 S   0  0  0  0  0  0
  -24.7091  -18.9789  -20.9457 C   0  0  0  0  0  0
  -24.3707  -18.1746  -22.0183 N   0  0  0  0  0  0
  -24.9929  -20.2797  -21.0368 N   0  0  0  0  0  0
  -26.9167  -22.7690  -20.1100 C   0  0  0  0  0  0
  -27.7994  -21.7669  -20.2696 N   0  0  0  0  0  0
  -29.1116  -21.7495  -20.9171 C   0  0  1  0  0  0
  -29.1150  -20.5886  -21.9248 C   0  0  1  0  0  0
  -29.7927  -21.4946  -22.8414 N   0  0  0  0  0  0
  -29.3378  -22.6327  -22.1793 C   0  0  0  0  0  0
  -29.1692  -23.7885  -22.5176 O   0  0  0  0  0  0
  -30.1219  -21.0269  -24.1293 C   0  0  0  0  0  0
  -29.7256  -21.9483  -25.3529 C   0  0  0  0  0  0
  -28.7670  -22.7381  -25.2033 O   0  5  0  0  0  0
  -30.3807  -21.8457  -26.4133 O   0  0  0  0  0  0
  -30.7039  -19.8015  -24.2396 C   0  0  0  0  0  0
  -31.2203  -19.0685  -23.0050 C   0  0  0  0  0  0
  -30.0479  -19.0456  -21.6256 S   0  0  0  0  0  0
  -31.0619  -19.1027  -25.5449 C   0  0  0  0  0  0
  -27.1330  -23.9494  -20.4110 O   0  0  0  0  0  0
  -24.7700  -25.7202  -17.2142 H   0  0  0  0  0  0
  -23.3288  -24.8484  -17.7628 H   0  0  0  0  0  0
  -24.4955  -24.0704  -16.6748 H   0  0  0  0  0  0
  -25.3595  -20.1207  -17.6970 H   0  0  0  0  0  0
  -24.5880  -18.5014  -22.9501 H   0  0  0  0  0  0
  -24.4707  -17.1753  -21.9113 H   0  0  0  0  0  0
  -27.5083  -20.8585  -19.9333 H   0  0  0  0  0  0
  -29.9506  -21.7051  -20.2213 H   0  0  0  0  0  0
  -28.1197  -20.3437  -22.3095 H   0  0  0  0  0  0
  -31.4753  -18.0336  -23.2343 H   0  0  0  0  0  0
  -32.1402  -19.5529  -22.6766 H   0  0  0  0  0  0
  -30.9280  -18.0249  -25.4462 H   0  0  0  0  0  0
  -30.4275  -19.4045  -26.3754 H   0  0  0  0  0  0
  -32.1038  -19.2924  -25.8020 H   0  0  0  0  0  0
  1  2  1  0  0  0
  1 27  1  0  0  0
  1 28  1  0  0  0
  1 29  1  0  0  0
  2  3  1  0  0  0
  3  4  2  3  0  0
  4  5  1  0  0  0
  4 11  1  0  0  0
  5 10  1  0  0  0
  5  6  2  0  0  0
  6  7  1  0  0  0
  6 30  1  0  0  0
  7  8  1  0  0  0
  8  9  1  0  0  0
  8 10  2  0  0  0
  9 31  1  0  0  0
  9 32  1  0  0  0
 11 12  1  0  0  0
 11 26  2  0  0  0
 12 13  1  0  0  0
 12 33  1  0  0  0
 13 16  1  0  0  0
 13 14  1  0  0  0
 13 34  1  0  0  0
 14 24  1  0  0  0
 14 15  1  0  0  0
 14 35  1  0  0  0
 15 16  1  0  0  0
 15 18  1  0  0  0
 16 17  2  0  0  0
 18 19  1  0  0  0
 18 22  2  0  0  0
 19 20  1  0  0  0
 19 21  2  0  0  0
 22 23  1  0  0  0
 22 25  1  0  0  0
 23 24  1  0  0  0
 23 36  1  0  0  0
 23 37  1  0  0  0
 25 38  1  0  0  0
 25 39  1  0  0  0
 25 40  1  0  0  0
M  CHG  1  20  -1
M  END
> <s_m_entry_id>
27548

> <s_m_entry_name>
data_maestro.7

> <s_m_Source_Path>
C:\Users\olshana1\Git\GramNeg-Accumulation\Gram Negative Permeation - OmpF

> <s_m_Source_File>
data_maestro.csv

> <i_m_Source_File_Index>
7

> <s_m_job_name>
glide-dock_Nicaido_neutral

> <s_i_glide_gridfile>
3POX-grid

> <i_i_glide_lignum>
10

> <i_i_glide_rotatable_bonds>
6

> <r_i_docking_score>
-4.67603958659862

> <r_i_glide_ligand_efficiency>
-0.179847676407639

> <r_i_glide_ligand_efficiency_sa>
-0.532798033691196

> <r_i_glide_ligand_efficiency_ln>
-1.09815255357534

> <r_i_glide_gscore>
-4.67603958659862

> <r_i_glide_lipo>
0

> <r_i_glide_hbond>
-0.956274653493342

> <r_i_glide_metal>
0

> <r_i_glide_rewards>
-0.645377313034451

> <r_i_glide_evdw>
-27.4000415802002

> <r_i_glide_ecoul>
-11.3897838592529

> <r_i_glide_erotb>
0.622478626066327

> <r_i_glide_esite>
-0.618396588239202

> <r_i_glide_emodel>
-58.4231316369429

> <r_i_glide_energy>
-38.7898254394531

> <r_i_glide_einternal>
5.29041242599487

> <i_i_glide_confnum>
39

> <i_i_glide_posenum>
57

> <r_i_glide_eff_state_penalty>
0

> <r_glide_res:A132_vdw>
-1.80593622021687

> <r_glide_res:A132_coul>
-37.5228091588789

> <r_glide_res:A132_hbond>
-0.267478549858724

> <r_glide_res:A132_dist>
2.06662616146613

> <r_glide_res:A132_Eint>
-39.5962239289545

> <r_glide_res:A117_vdw>
-3.72170335378782

> <r_glide_res:A117_coul>
20.7701182807085

> <r_glide_res:A117_hbond>
0

> <r_glide_res:A117_dist>
2.89993850670595

> <r_glide_res:A117_Eint>
17.0484149269207

> <r_glide_res:A113_vdw>
-3.07705877741299

> <r_glide_res:A113_coul>
17.4638499665977

> <r_glide_res:A113_hbond>
0

> <r_glide_res:A113_dist>
2.46378258406523

> <r_glide_res:A113_Eint>
14.3867911891848

> <r_glide_res:A82_vdw>
-1.93332779016092

> <r_glide_res:A82_coul>
-43.2171996312391

> <r_glide_res:A82_hbond>
-0.134239616177272

> <r_glide_res:A82_dist>
2.16440095955682

> <r_glide_res:A82_Eint>
-45.2847670375773

> <r_glide_res:A42_vdw>
2.91859878852962

> <r_glide_res:A42_coul>
-53.7474252862452

> <r_glide_res:A42_hbond>
-0.37120635208482

> <r_glide_res:A42_dist>
1.69344707867139

> <r_glide_res:A42_Eint>
-51.2000328498004

> <r_glide_res:A16_vdw>
0.572645420696603

> <r_glide_res:A16_coul>
-47.8648166827293

> <r_glide_res:A16_hbond>
-0.183350135372525

> <r_glide_res:A16_dist>
1.84065227452435

> <r_glide_res:A16_Eint>
-47.4755213974052

> <s_m_source_file>
ligprep_Nicaido_neutral.maegz

> <i_m_source_file_index>
7

> <i_lp_mmshare_version>
58128

> <i_f3d_flags>
0

> <s_lp_Force_Field>
S-OPLS

> <r_lp_Energy>
53.916069

> <b_lp_Chiralities_Consistent>
1

> <s_lp_Variant>
LY097964-2

> <s_epik_input>
W05IMl1jKG4xKXNbY0hdYzEvQyg9TlxPW0NIM10pQyg9TylbTkhdW0NAQEhdMkMoPU8pTihbQ0BIXTIzKUMoQyg9TylbT0hdKT1DKFtDSDJdUzMpW0NIM10=

> <s_epik_cmdline>
J2VwaWtfcHl0aG9uJywgJy1waHQnLCAnMC4wJywgJy1waCcsICc3LjQnLCAnLW50JywgJy1tYScsICc1MDAnLCAnLWltYWUnLCAnPGluZmlsZS5tYWU+JywgJy1vbWFlJywgJzxvdXRmaWxlLm1hZT4n

> <r_lp_tautomer_probability>
1

> <r_epik_Ionization_Penalty>
  0.0005

> <r_epik_Ionization_Penalty_Charging>
  0.0000

> <r_epik_Ionization_Penalty_Neutral>
  0.0005

> <r_epik_State_Penalty>
  0.0000

> <r_epik_Charging_Adjusted_Penalty>
1.64985111359435e-05

> <i_epik_Tot_Q>
-1

> <i_epik_Tot_abs_Q>
1

> <s_epik_Chemistry_Notes>
This compound has an imine and may undergo hydrolysis. This compound contains an acetal/aminal-like group ( X-CH(R)-Y where X, Y are N, S, or O) that may be acid/base labile, releasing an aldehyde.

> <s_m_subgroup_title>
glide-dock_Nicaido_neutral_pv1

> <s_m_subgroupid>
glide-dock_Nicaido_neutral_pv1

> <b_m_subgroup_collapsed>
0

$$$$
Aztreonam
                    3D
 Schrodinger Suite 2022-2.
 43 44  0  0  1  0            999 V2000
  -31.3605  -23.8586  -23.6013 C   0  0  0  0  0  0
  -31.6986  -22.3825  -23.8361 C   0  0  1  0  0  0
  -30.6584  -21.2487  -23.6538 C   0  0  2  0  0  0
  -30.7160  -21.0916  -25.1983 C   0  0  0  0  0  0
  -31.7351  -22.0194  -25.2495 N   0  0  0  0  0  0
  -32.5303  -22.9106  -26.4126 S   0  0  0  0  0  0
  -31.5690  -23.9647  -26.7739 O   0  0  0  0  0  0
  -32.7700  -21.9496  -27.5005 O   0  5  0  0  0  0
  -33.7488  -23.3950  -25.7491 O   0  0  0  0  0  0
  -30.1195  -20.4852  -26.0633 O   0  0  0  0  0  0
  -29.3790  -21.6942  -23.0611 N   0  0  0  0  0  0
  -28.3646  -22.3766  -23.6381 C   0  0  0  0  0  0
  -27.1985  -22.7318  -22.7319 C   0  0  0  0  0  0
  -27.3907  -22.5209  -21.2752 C   0  0  0  0  0  0
  -27.3222  -21.2742  -20.6959 C   0  0  0  0  0  0
  -27.5696  -21.3463  -18.9711 S   0  0  0  0  0  0
  -27.7554  -23.0876  -19.1138 C   0  0  0  0  0  0
  -27.9690  -23.8915  -18.0131 N   0  0  0  0  0  0
  -27.6350  -23.5499  -20.3576 N   0  0  0  0  0  0
  -26.1550  -23.2571  -23.2410 N   0  0  0  0  0  0
  -25.1773  -23.6134  -22.2906 O   0  0  0  0  0  0
  -23.9306  -23.9596  -22.9228 C   0  0  0  0  0  0
  -23.9688  -25.3958  -23.5240 C   0  0  0  0  0  0
  -23.5692  -26.3488  -22.8133 O   0  5  0  0  0  0
  -24.3687  -25.5502  -24.7020 O   0  0  0  0  0  0
  -23.4967  -22.9311  -24.0005 C   0  0  0  0  0  0
  -22.9208  -23.9086  -21.7571 C   0  0  0  0  0  0
  -28.3647  -22.7495  -24.8134 O   0  0  0  0  0  0
  -31.0933  -24.0387  -22.5597 H   0  0  0  0  0  0
  -32.2129  -24.4997  -23.8278 H   0  0  0  0  0  0
  -30.5356  -24.1921  -24.2274 H   0  0  0  0  0  0
  -32.6478  -22.1073  -23.3726 H   0  0  0  0  0  0
  -31.0861  -20.4000  -23.1183 H   0  0  0  0  0  0
  -29.2633  -21.4461  -22.0871 H   0  0  0  0  0  0
  -27.1368  -20.3178  -21.1656 H   0  0  0  0  0  0
  -27.8075  -24.8833  -18.0563 H   0  0  0  0  0  0
  -27.8787  -23.4818  -17.0929 H   0  0  0  0  0  0
  -22.4867  -23.1372  -24.3553 H   0  0  0  0  0  0
  -24.1465  -22.9359  -24.8761 H   0  0  0  0  0  0
  -23.5017  -21.9183  -23.5968 H   0  0  0  0  0  0
  -21.9186  -24.1939  -22.0782 H   0  0  0  0  0  0
  -22.8564  -22.9021  -21.3426 H   0  0  0  0  0  0
  -23.2112  -24.5716  -20.9413 H   0  0  0  0  0  0
  1  2  1  0  0  0
  1 29  1  0  0  0
  1 30  1  0  0  0
  1 31  1  0  0  0
  2  5  1  0  0  0
  2  3  1  0  0  0
  2 32  1  0  0  0
  3  4  1  0  0  0
  3 11  1  0  0  0
  3 33  1  0  0  0
  4  5  1  0  0  0
  4 10  2  0  0  0
  5  6  1  0  0  0
  6  7  2  0  0  0
  6  8  1  0  0  0
  6  9  2  0  0  0
 11 12  1  0  0  0
 11 34  1  0  0  0
 12 13  1  0  0  0
 12 28  2  0  0  0
 13 14  1  0  0  0
 13 20  2  3  0  0
 14 19  1  0  0  0
 14 15  2  0  0  0
 15 16  1  0  0  0
 15 35  1  0  0  0
 16 17  1  0  0  0
 17 18  1  0  0  0
 17 19  2  0  0  0
 18 36  1  0  0  0
 18 37  1  0  0  0
 20 21  1  0  0  0
 21 22  1  0  0  0
 22 23  1  0  0  0
 22 26  1  0  0  0
 22 27  1  0  0  0
 23 24  1  0  0  0
 23 25  2  0  0  0
 26 38  1  0  0  0
 26 39  1  0  0  0
 26 40  1  0  0  0
 27 41  1  0  0  0
 27 42  1  0  0  0
 27 43  1  0  0  0
M  CHG  2   8  -1  24  -1
M  END
> <s_m_entry_id>
27549

> <s_m_entry_name>
data_maestro.21

> <s_m_Source_Path>
C:\Users\olshana1\Git\GramNeg-Accumulation\Gram Negative Permeation - OmpF

> <s_m_Source_File>
data_maestro.csv

> <i_m_Source_File_Index>
21

> <s_m_job_name>
glide-dock_Nicaido_neutral

> <s_i_glide_gridfile>
3POX-grid

> <i_i_glide_lignum>
26

> <i_i_glide_rotatable_bonds>
8

> <r_i_docking_score>
-4.67086254625718

> <r_i_glide_ligand_efficiency>
-0.166816519509185

> <r_i_glide_ligand_efficiency_sa>
-0.506553202905626

> <r_i_glide_ligand_efficiency_ln>
-1.07817221815973

> <r_i_glide_gscore>
-4.67086254625718

> <r_i_glide_lipo>
0

> <r_i_glide_hbond>
-0.805417988528869

> <r_i_glide_metal>
0

> <r_i_glide_rewards>
-0.450098990427904

> <r_i_glide_evdw>
-21.2788581848145

> <r_i_glide_ecoul>
-14.3566884994507

> <r_i_glide_erotb>
0.635830109179744

> <r_i_glide_esite>
-0.833729492321828

> <r_i_glide_emodel>
-58.1160016829889

> <r_i_glide_energy>
-35.6355466842651

> <r_i_glide_einternal>
12.3283662796021

> <i_i_glide_confnum>
114

> <i_i_glide_posenum>
390

> <r_i_glide_eff_state_penalty>
0

> <r_glide_res:A132_vdw>
-2.72371911884607

> <r_glide_res:A132_coul>
-60.8119170271378

> <r_glide_res:A132_hbond>
-0.135979453894563

> <r_glide_res:A132_dist>
2.2337952295323

> <r_glide_res:A132_Eint>
-63.6716155998784

> <r_glide_res:A117_vdw>
-0.947529698819525

> <r_glide_res:A117_coul>
35.7067095917134

> <r_glide_res:A117_hbond>
0

> <r_glide_res:A117_dist>
3.83324411829733

> <r_glide_res:A117_Eint>
34.7591798928939

> <r_glide_res:A113_vdw>
-2.60894241156466

> <r_glide_res:A113_coul>
29.1708324502174

> <r_glide_res:A113_hbond>
0

> <r_glide_res:A113_dist>
3.64111245790199

> <r_glide_res:A113_Eint>
26.5618900386527

> <r_glide_res:A82_vdw>
-2.27191309413831

> <r_glide_res:A82_coul>
-72.9215810153495

> <r_glide_res:A82_hbond>
-0.162096998217795

> <r_glide_res:A82_dist>
1.93633242595113

> <r_glide_res:A82_Eint>
-75.3555911077056

> <r_glide_res:A42_vdw>
-2.26538551627371

> <r_glide_res:A42_coul>
-75.4207146041648

> <r_glide_res:A42_hbond>
-0.263692280481071

> <r_glide_res:A42_dist>
2.040448745594

> <r_glide_res:A42_Eint>
-77.9497924009196

> <r_glide_res:A16_vdw>
0.516070459471599

> <r_glide_res:A16_coul>
-73.2902203230934

> <r_glide_res:A16_hbond>
-0.24364925593544

> <r_glide_res:A16_dist>
1.87260996388547

> <r_glide_res:A16_Eint>
-73.0177991195572

> <s_m_source_file>
ligprep_Nicaido_neutral.maegz

> <i_m_source_file_index>
21

> <i_lp_mmshare_version>
58128

> <i_f3d_flags>
0

> <s_lp_Force_Field>
S-OPLS

> <r_lp_Energy>
55.612973

> <b_lp_Chiralities_Consistent>
1

> <s_lp_Variant>
Aztreonam-1

> <s_epik_input>
Tz1TKD1PKShbT0hdKU4xQyg9TylbQ0BASF0oW0NAQEhdMVtDSDNdKVtOSF1DKD1PKS9DKGMyW2NIXXNjKG4yKVtOSDJdKT1OL09DKFtDSDNdKShbQ0gzXSlDKD1PKVtPSF0=

> <s_epik_cmdline>
J2VwaWtfcHl0aG9uJywgJy1waHQnLCAnMC4wJywgJy1waCcsICc3LjQnLCAnLW50JywgJy1tYScsICc1MDAnLCAnLWltYWUnLCAnPGluZmlsZS5tYWU+JywgJy1vbWFlJywgJzxvdXRmaWxlLm1hZT4n

> <r_lp_tautomer_probability>
1

> <r_epik_Ionization_Penalty>
  0.0004

> <r_epik_Ionization_Penalty_Charging>
  0.0000

> <r_epik_Ionization_Penalty_Neutral>
  0.0004

> <r_epik_State_Penalty>
  0.0000

> <r_epik_Charging_Adjusted_Penalty>
4.45674509427693e-05

> <i_epik_Tot_Q>
-2

> <i_epik_Tot_abs_Q>
2

> <s_epik_Chemistry_Notes>
This compound has an imine and may undergo hydrolysis.

> <s_m_subgroup_title>
glide-dock_Nicaido_neutral_pv1

> <s_m_subgroupid>
glide-dock_Nicaido_neutral_pv1

> <b_m_subgroup_collapsed>
0

$$$$
Nocardicin B
                    3D
 Schrodinger Suite 2022-2.
 59 61  0  0  1  0            999 V2000
  -33.5690  -21.6438  -28.7806 O   0  0  0  0  0  0
  -34.6730  -21.1778  -28.5966 C   0  0  0  0  0  0
  -36.0982  -21.7178  -28.4402 C   0  0  2  0  0  0
  -36.4966  -20.2538  -28.2265 C   0  0  0  0  0  0
  -35.0931  -19.8797  -28.4544 N   0  0  0  0  0  0
  -34.3897  -18.6058  -28.5779 C   0  0  2  0  0  0
  -33.5642  -18.3132  -27.3591 C   0  0  0  0  0  0
  -32.2191  -17.8989  -27.5077 C   0  0  0  0  0  0
  -31.3954  -17.6492  -26.3933 C   0  0  0  0  0  0
  -31.9110  -17.7855  -25.0932 C   0  0  0  0  0  0
  -33.2520  -18.1640  -24.9167 C   0  0  0  0  0  0
  -34.0592  -18.4432  -26.0376 C   0  0  0  0  0  0
  -31.1119  -17.5483  -24.0138 O   0  0  0  0  0  0
  -35.3663  -17.4368  -28.8107 C   0  0  0  0  0  0
  -35.5697  -17.1496  -30.0097 O   0  5  0  0  0  0
  -35.9534  -16.8989  -27.8399 O   0  0  0  0  0  0
  -36.2567  -22.5176  -27.2336 N   0  0  0  0  0  0
  -37.4279  -22.9899  -26.7739 C   0  0  0  0  0  0
  -37.3392  -23.5848  -25.3571 C   0  0  0  0  0  0
  -36.1958  -23.0855  -24.5380 C   0  0  0  0  0  0
  -35.3207  -23.9977  -23.9057 C   0  0  0  0  0  0
  -34.2248  -23.5405  -23.1480 C   0  0  0  0  0  0
  -33.9793  -22.1551  -23.0146 C   0  0  0  0  0  0
  -34.8603  -21.2456  -23.6255 C   0  0  0  0  0  0
  -35.9679  -21.7006  -24.3605 C   0  0  0  0  0  0
  -32.9072  -21.6368  -22.3295 O   0  0  0  0  0  0
  -32.5518  -22.2642  -21.1061 C   0  0  0  0  0  0
  -31.3035  -23.1531  -21.2428 C   0  0  0  0  0  0
  -30.0114  -22.3710  -21.5700 C   0  0  2  0  0  0
  -28.9014  -23.3568  -21.9839 C   0  0  0  0  0  0
  -28.7231  -23.5493  -23.2081 O   0  5  0  0  0  0
  -28.2617  -23.9484  -21.0828 O   0  0  0  0  0  0
  -29.5598  -21.5701  -20.4135 N   0  3  0  0  0  0
  -38.1190  -24.4504  -24.8282 N   0  0  0  0  0  0
  -39.1236  -24.9035  -25.7376 O   0  0  0  0  0  0
  -38.4772  -22.9109  -27.4145 O   0  0  0  0  0  0
  -36.5279  -22.1559  -29.3420 H   0  0  0  0  0  0
  -37.1823  -19.8805  -28.9890 H   0  0  0  0  0  0
  -36.8579  -20.0152  -27.2250 H   0  0  0  0  0  0
  -33.7469  -18.6785  -29.4568 H   0  0  0  0  0  0
  -31.8059  -17.7676  -28.4969 H   0  0  0  0  0  0
  -30.3720  -17.3320  -26.5343 H   0  0  0  0  0  0
  -33.6603  -18.2491  -23.9213 H   0  0  0  0  0  0
  -35.0862  -18.7401  -25.8829 H   0  0  0  0  0  0
  -31.5284  -17.0239  -23.3383 H   0  0  0  0  0  0
  -35.4421  -22.6136  -26.6437 H   0  0  0  0  0  0
  -35.4839  -25.0609  -24.0065 H   0  0  0  0  0  0
  -33.5737  -24.2654  -22.6864 H   0  0  0  0  0  0
  -34.6957  -20.1868  -23.5106 H   0  0  0  0  0  0
  -36.6322  -20.9741  -24.8061 H   0  0  0  0  0  0
  -33.3839  -22.8279  -20.6804 H   0  0  0  0  0  0
  -32.3580  -21.4556  -20.4073 H   0  0  0  0  0  0
  -31.4849  -23.9066  -22.0089 H   0  0  0  0  0  0
  -31.1643  -23.7045  -20.3111 H   0  0  0  0  0  0
  -30.1990  -21.6848  -22.3976 H   0  0  0  0  0  0
  -28.7280  -21.0528  -20.6552 H   0  0  0  0  0  0
  -30.2796  -20.9258  -20.0983 H   0  0  0  0  0  0
  -39.7022  -25.3853  -25.1664 H   0  0  0  0  0  0
  -29.3527  -22.1959  -19.6485 H   0  0  0  0  0  0
  1  2  2  0  0  0
  2  5  1  0  0  0
  2  3  1  0  0  0
  3  4  1  0  0  0
  3 17  1  0  0  0
  3 37  1  0  0  0
  4  5  1  0  0  0
  4 38  1  0  0  0
  4 39  1  0  0  0
  5  6  1  0  0  0
  6  7  1  0  0  0
  6 14  1  0  0  0
  6 40  1  0  0  0
  7 12  1  0  0  0
  7  8  2  0  0  0
  8  9  1  0  0  0
  8 41  1  0  0  0
  9 10  2  0  0  0
  9 42  1  0  0  0
 10 11  1  0  0  0
 10 13  1  0  0  0
 11 12  2  0  0  0
 11 43  1  0  0  0
 12 44  1  0  0  0
 13 45  1  0  0  0
 14 15  1  0  0  0
 14 16  2  0  0  0
 17 18  1  0  0  0
 17 46  1  0  0  0
 18 19  1  0  0  0
 18 36  2  0  0  0
 19 20  1  0  0  0
 19 34  2  3  0  0
 20 25  1  0  0  0
 20 21  2  0  0  0
 21 22  1  0  0  0
 21 47  1  0  0  0
 22 23  2  0  0  0
 22 48  1  0  0  0
 23 24  1  0  0  0
 23 26  1  0  0  0
 24 25  2  0  0  0
 24 49  1  0  0  0
 25 50  1  0  0  0
 26 27  1  0  0  0
 27 28  1  0  0  0
 27 51  1  0  0  0
 27 52  1  0  0  0
 28 29  1  0  0  0
 28 53  1  0  0  0
 28 54  1  0  0  0
 29 30  1  0  0  0
 29 33  1  0  0  0
 29 55  1  0  0  0
 30 31  1  0  0  0
 30 32  2  0  0  0
 33 56  1  0  0  0
 33 57  1  0  0  0
 33 59  1  0  0  0
 34 35  1  0  0  0
 35 58  1  0  0  0
M  CHG  3  15  -1  31  -1  33   1
M  END
> <s_m_entry_id>
27550

> <s_m_entry_name>
data_maestro.29

> <s_m_Source_Path>
C:\Users\olshana1\Git\GramNeg-Accumulation\Gram Negative Permeation - OmpF

> <s_m_Source_File>
data_maestro.csv

> <i_m_Source_File_Index>
29

> <s_m_job_name>
glide-dock_Nicaido_neutral

> <s_i_glide_gridfile>
3POX-grid

> <i_i_glide_lignum>
37

> <i_i_glide_rotatable_bonds>
14

> <r_i_docking_score>
-4.65286573887074

> <r_i_glide_ligand_efficiency>
-0.129246270524187

> <r_i_glide_ligand_efficiency_sa>
-0.42676178195205

> <r_i_glide_ligand_efficiency_ln>
-1.01512959831644

> <r_i_glide_gscore>
-4.65286573887074

> <r_i_glide_lipo>
-0.0262698745977085

> <r_i_glide_hbond>
-1.28689762620422

> <r_i_glide_metal>
0

> <r_i_glide_rewards>
0.339818049498114

> <r_i_glide_evdw>
-20.4409790039063

> <r_i_glide_ecoul>
-22.0112075805664

> <r_i_glide_erotb>
0.900147327125679

> <r_i_glide_esite>
-0.255933527412329

> <r_i_glide_emodel>
-61.0396895510887

> <r_i_glide_energy>
-42.4521865844727

> <r_i_glide_einternal>
16.6445274353027

> <i_i_glide_confnum>
120

> <i_i_glide_posenum>
311

> <r_i_glide_eff_state_penalty>
0

> <r_glide_res:A132_vdw>
1.62425357427341

> <r_glide_res:A132_coul>
-28.1094978903219

> <r_glide_res:A132_hbond>
-0.19422084723132

> <r_glide_res:A132_dist>
1.8451024079174

> <r_glide_res:A132_Eint>
-26.6794651632798

> <r_glide_res:A117_vdw>
-1.55751114232113

> <r_glide_res:A117_coul>
16.786212314585

> <r_glide_res:A117_hbond>
0

> <r_glide_res:A117_dist>
3.17610554443522

> <r_glide_res:A117_Eint>
15.2287011722638

> <r_glide_res:A113_vdw>
0.163737373504533

> <r_glide_res:A113_coul>
-19.6921358314707

> <r_glide_res:A113_hbond>
-0.186879892858696

> <r_glide_res:A113_dist>
1.88234524033213

> <r_glide_res:A113_Eint>
-19.7152783508248

> <r_glide_res:A82_vdw>
-0.947653495740797

> <r_glide_res:A82_coul>
-33.9890075016221

> <r_glide_res:A82_hbond>
-0.141872138496953

> <r_glide_res:A82_dist>
2.2784389943015

> <r_glide_res:A82_Eint>
-35.0785331358598

> <r_glide_res:A42_vdw>
-0.793928436263118

> <r_glide_res:A42_coul>
-27.0036344728311

> <r_glide_res:A42_hbond>
0

> <r_glide_res:A42_dist>
3.35532776293798

> <r_glide_res:A42_Eint>
-27.7975629090942

> <r_glide_res:A16_vdw>
-1.66240869068445

> <r_glide_res:A16_coul>
-36.0761196031998

> <r_glide_res:A16_hbond>
-0.16

> <r_glide_res:A16_dist>
1.87510845074868

> <r_glide_res:A16_Eint>
-37.8985282938843

> <s_m_source_file>
ligprep_Nicaido_neutral.maegz

> <i_m_source_file_index>
29

> <i_lp_mmshare_version>
58128

> <i_f3d_flags>
0

> <s_lp_Force_Field>
S-OPLS

> <r_lp_Energy>
65.715273

> <b_lp_Chiralities_Consistent>
1

> <s_lp_Variant>
Nocardicin B-2

> <s_epik_input>
W2NIXTFbY0hdYyhbT0hdKVtjSF1bY0hdYzFbQ0BIXShDKD1PKVtPSF0pTjJbQ0gyXVtDQEBIXShDMj1PKVtOSF1DKD1PKS9DKD1OL1tPSF0pYzNbY0hdW2NIXWMoW2NIXVtjSF0zKU9bQ0gyXVtDSDJdW0NAQEhdKFtOSDJdKUMoPU8pW09IXQ==

> <s_epik_cmdline>
J2VwaWtfcHl0aG9uJywgJy1waHQnLCAnMC4wJywgJy1waCcsICc3LjQnLCAnLW50JywgJy1tYScsICc1MDAnLCAnLWltYWUnLCAnPGluZmlsZS5tYWU+JywgJy1vbWFlJywgJzxvdXRmaWxlLm1hZT4n

> <r_lp_tautomer_probability>
1

> <r_epik_Ionization_Penalty>
  0.0116

> <r_epik_Ionization_Penalty_Charging>
  0.0086

> <r_epik_Ionization_Penalty_Neutral>
  0.0030

> <r_epik_State_Penalty>
  0.0000

> <r_epik_Charging_Adjusted_Penalty>
0.0085560600321308

> <i_epik_Tot_Q>
-1

> <i_epik_Tot_abs_Q>
3

> <s_epik_Chemistry_Notes>
This compound has an imine and may undergo hydrolysis.

> <s_m_subgroup_title>
glide-dock_Nicaido_neutral_pv1

> <s_m_subgroupid>
glide-dock_Nicaido_neutral_pv1

> <b_m_subgroup_collapsed>
0

$$$$
Cephaloglycin
                    3D
 Schrodinger Suite 2022-2.
 46 48  0  0  1  0            999 V2000
  -33.3696  -24.5165  -21.4427 C   0  0  0  0  0  0
  -32.2628  -24.0096  -22.3578 C   0  0  0  0  0  0
  -32.4761  -22.7482  -22.7680 O   0  0  0  0  0  0
  -31.5644  -22.1193  -23.6576 C   0  0  0  0  0  0
  -30.4658  -21.3697  -22.9127 C   0  0  0  0  0  0
  -29.1695  -21.7795  -22.8627 C   0  0  0  0  0  0
  -28.1952  -21.0973  -22.1081 N   0  0  0  0  0  0
  -28.5122  -20.1225  -21.0782 C   0  0  1  0  0  0
  -26.9955  -19.8363  -20.9996 C   0  0  2  0  0  0
  -26.8505  -21.1676  -21.7957 C   0  0  0  0  0  0
  -25.9825  -21.9681  -22.0810 O   0  0  0  0  0  0
  -26.5348  -19.8479  -19.6084 N   0  0  0  0  0  0
  -25.3648  -20.3131  -19.1368 C   0  0  0  0  0  0
  -25.1497  -20.2233  -17.6144 C   0  0  2  0  0  0
  -23.8417  -19.5184  -17.4466 C   0  0  0  0  0  0
  -22.6036  -20.2118  -17.3839 C   0  0  0  0  0  0
  -21.3810  -19.5317  -17.2357 C   0  0  0  0  0  0
  -21.3647  -18.1294  -17.1492 C   0  0  0  0  0  0
  -22.5777  -17.4228  -17.2133 C   0  0  0  0  0  0
  -23.7980  -18.1076  -17.3546 C   0  0  0  0  0  0
  -25.1693  -21.5509  -16.9981 N   0  0  0  0  0  0
  -24.4995  -20.8203  -19.8510 O   0  0  0  0  0  0
  -29.6937  -18.9337  -21.7726 S   0  0  0  0  0  0
  -30.9851  -20.1323  -22.1810 C   0  0  0  0  0  0
  -28.6608  -23.0843  -23.5646 C   0  0  0  0  0  0
  -28.7949  -23.1495  -24.8105 O   0  5  0  0  0  0
  -28.1485  -23.9497  -22.8149 O   0  0  0  0  0  0
  -31.3172  -24.7293  -22.6862 O   0  0  0  0  0  0
  -32.9998  -25.3200  -20.8039 H   0  0  0  0  0  0
  -33.7358  -23.7158  -20.8009 H   0  0  0  0  0  0
  -34.2003  -24.8975  -22.0342 H   0  0  0  0  0  0
  -32.1168  -21.3959  -24.2595 H   0  0  0  0  0  0
  -31.1653  -22.8421  -24.3676 H   0  0  0  0  0  0
  -28.9229  -20.6150  -20.1912 H   0  0  0  0  0  0
  -26.7074  -18.9375  -21.5481 H   0  0  0  0  0  0
  -27.1645  -19.4203  -18.9357 H   0  0  0  0  0  0
  -25.9589  -19.6359  -17.1721 H   0  0  0  0  0  0
  -22.5926  -21.2894  -17.4552 H   0  0  0  0  0  0
  -20.4540  -20.0847  -17.1914 H   0  0  0  0  0  0
  -20.4320  -17.5958  -17.0298 H   0  0  0  0  0  0
  -22.5739  -16.3483  -17.1415 H   0  0  0  0  0  0
  -24.7181  -17.5396  -17.3928 H   0  0  0  0  0  0
  -25.8724  -21.5836  -16.2653 H   0  0  0  0  0  0
  -25.4446  -22.2461  -17.6752 H   0  0  0  0  0  0
  -31.7309  -19.6243  -22.7925 H   0  0  0  0  0  0
  -31.4838  -20.4402  -21.2598 H   0  0  0  0  0  0
  1  2  1  0  0  0
  1 29  1  0  0  0
  1 30  1  0  0  0
  1 31  1  0  0  0
  2  3  1  0  0  0
  2 28  2  0  0  0
  3  4  1  0  0  0
  4  5  1  0  0  0
  4 32  1  0  0  0
  4 33  1  0  0  0
  5 24  1  0  0  0
  5  6  2  0  0  0
  6  7  1  0  0  0
  6 25  1  0  0  0
  7 10  1  0  0  0
  7  8  1  0  0  0
  8  9  1  0  0  0
  8 23  1  0  0  0
  8 34  1  0  0  0
  9 10  1  0  0  0
  9 12  1  0  0  0
  9 35  1  0  0  0
 10 11  2  0  0  0
 12 13  1  0  0  0
 12 36  1  0  0  0
 13 14  1  0  0  0
 13 22  2  0  0  0
 14 15  1  0  0  0
 14 21  1  0  0  0
 14 37  1  0  0  0
 15 20  1  0  0  0
 15 16  2  0  0  0
 16 17  1  0  0  0
 16 38  1  0  0  0
 17 18  2  0  0  0
 17 39  1  0  0  0
 18 19  1  0  0  0
 18 40  1  0  0  0
 19 20  2  0  0  0
 19 41  1  0  0  0
 20 42  1  0  0  0
 21 43  1  0  0  0
 21 44  1  0  0  0
 23 24  1  0  0  0
 24 45  1  0  0  0
 24 46  1  0  0  0
 25 26  1  0  0  0
 25 27  2  0  0  0
M  CHG  1  26  -1
M  END
> <s_m_entry_id>
27551

> <s_m_entry_name>
data_maestro.16

> <s_m_Source_Path>
C:\Users\olshana1\Git\GramNeg-Accumulation\Gram Negative Permeation - OmpF

> <s_m_Source_File>
data_maestro.csv

> <i_m_Source_File_Index>
16

> <s_m_job_name>
glide-dock_Nicaido_neutral

> <s_i_glide_gridfile>
3POX-grid

> <i_i_glide_lignum>
21

> <i_i_glide_rotatable_bonds>
8

> <r_i_docking_score>
-4.64596735523618

> <r_i_glide_ligand_efficiency>
-0.165927405544149

> <r_i_glide_ligand_efficiency_sa>
-0.503853329247657

> <r_i_glide_ligand_efficiency_ln>
-1.07242567711751

> <r_i_glide_gscore>
-4.75736735523618

> <r_i_glide_lipo>
-0.0190892078921867

> <r_i_glide_hbond>
-1.1546836325989

> <r_i_glide_metal>
0

> <r_i_glide_rewards>
-0.651695253161456

> <r_i_glide_evdw>
-28.0863780975342

> <r_i_glide_ecoul>
-11.8035802841187

> <r_i_glide_erotb>
0.600502745111863

> <r_i_glide_esite>
-0.357546059200997

> <r_i_glide_emodel>
-64.6198774725391

> <r_i_glide_energy>
-39.8899583816528

> <r_i_glide_einternal>
2.48705887794495

> <i_i_glide_confnum>
5

> <i_i_glide_posenum>
258

> <r_i_glide_eff_state_penalty>
0.1114

> <r_glide_res:A132_vdw>
-1.5269459074096

> <r_glide_res:A132_coul>
-36.6276109811257

> <r_glide_res:A132_hbond>
0

> <r_glide_res:A132_dist>
2.90369619345633

> <r_glide_res:A132_Eint>
-38.1545568885353

> <r_glide_res:A117_vdw>
-2.38643533315752

> <r_glide_res:A117_coul>
22.8834745080904

> <r_glide_res:A117_hbond>
0

> <r_glide_res:A117_dist>
2.47434679292723

> <r_glide_res:A117_Eint>
20.4970391749329

> <r_glide_res:A113_vdw>
-3.60550453251868

> <r_glide_res:A113_coul>
16.5047060468004

> <r_glide_res:A113_hbond>
0

> <r_glide_res:A113_dist>
2.59886370291064

> <r_glide_res:A113_Eint>
12.8992015142817

> <r_glide_res:A82_vdw>
0.101352333121515

> <r_glide_res:A82_coul>
-53.9647962811959

> <r_glide_res:A82_hbond>
-0.333263521585867

> <r_glide_res:A82_dist>
1.82448162296209

> <r_glide_res:A82_Eint>
-54.1967074696603

> <r_glide_res:A42_vdw>
0.409000761383302

> <r_glide_res:A42_coul>
-47.0063050732269

> <r_glide_res:A42_hbond>
-0.221992843357474

> <r_glide_res:A42_dist>
1.84585656446149

> <r_glide_res:A42_Eint>
-46.819297155201

> <r_glide_res:A16_vdw>
-0.336551059009404

> <r_glide_res:A16_coul>
-25.9800145222672

> <r_glide_res:A16_hbond>
0

> <r_glide_res:A16_dist>
4.14096790487861

> <r_glide_res:A16_Eint>
-26.3165655812766

> <s_m_source_file>
ligprep_Nicaido_neutral.maegz

> <i_m_source_file_index>
16

> <i_lp_mmshare_version>
58128

> <i_f3d_flags>
0

> <s_lp_Force_Field>
S-OPLS

> <r_lp_Energy>
48.658328

> <b_lp_Chiralities_Consistent>
1

> <s_lp_Variant>
Cephaloglycin-1

> <s_epik_input>
W0NIM11DKD1PKU9bQ0gyXUMoPUMxQyg9TylbT0hdKVtDSDJdU1tDQEBIXShOMTIpW0NASF0oQzI9TylbTkhdQyg9TylbQ0BASF0oW05IMl0pYzNbY0hdW2NIXVtjSF1bY0hdW2NIXTM=

> <s_epik_cmdline>
J2VwaWtfcHl0aG9uJywgJy1waHQnLCAnMC4wJywgJy1waCcsICc3LjQnLCAnLW50JywgJy1tYScsICc1MDAnLCAnLWltYWUnLCAnPGluZmlsZS5tYWU+JywgJy1vbWFlJywgJzxvdXRmaWxlLm1hZT4n

> <r_epik_Ionization_Penalty>
  0.1114

> <r_epik_Ionization_Penalty_Charging>
  0.0000

> <r_epik_Ionization_Penalty_Neutral>
  0.1114

> <r_epik_State_Penalty>
  0.1114

> <r_epik_Charging_Adjusted_Penalty>
0.111378695294398

> <i_epik_Tot_Q>
-1

> <i_epik_Tot_abs_Q>
1

> <s_epik_Chemistry_Notes>
This compound has an ester and may undergo hydrolysis at high or low pH. This compound contains an acetal/aminal-like group ( X-CH(R)-Y where X, Y are N, S, or O) that may be acid/base labile, releasing an aldehyde.

> <s_m_subgroup_title>
glide-dock_Nicaido_neutral_pv1

> <s_m_subgroupid>
glide-dock_Nicaido_neutral_pv1

> <b_m_subgroup_collapsed>
0

$$$$
Cephalexin
                    3D
 Schrodinger Suite 2022-2.
 40 42  0  0  1  0            999 V2000
  -31.5796  -22.1821  -21.4927 C   0  0  0  0  0  0
  -30.6262  -21.2529  -22.2336 C   0  0  0  0  0  0
  -29.7258  -21.6665  -23.1637 C   0  0  0  0  0  0
  -28.8690  -20.7619  -23.8069 N   0  0  0  0  0  0
  -28.4402  -19.5304  -23.1759 C   0  0  1  0  0  0
  -27.5440  -19.2970  -24.4164 C   0  0  2  0  0  0
  -27.9397  -20.7228  -24.8182 C   0  0  0  0  0  0
  -27.5683  -21.5496  -25.6141 O   0  0  0  0  0  0
  -26.0975  -19.1494  -24.1746 N   0  0  0  0  0  0
  -25.2433  -19.9435  -23.5052 C   0  0  0  0  0  0
  -23.7615  -19.5167  -23.5026 C   0  0  2  0  0  0
  -23.1736  -20.0409  -24.7774 C   0  0  0  0  0  0
  -23.0390  -21.4279  -25.0382 C   0  0  0  0  0  0
  -22.4686  -21.9007  -26.2368 C   0  0  0  0  0  0
  -22.0052  -20.9899  -27.2017 C   0  0  0  0  0  0
  -22.1175  -19.6107  -26.9642 C   0  0  0  0  0  0
  -22.6956  -19.1500  -25.7678 C   0  0  0  0  0  0
  -23.0614  -20.0231  -22.3232 N   0  0  0  0  0  0
  -25.5879  -20.9647  -22.9054 O   0  0  0  0  0  0
  -29.9688  -18.5867  -22.8865 S   0  0  0  0  0  0
  -30.7647  -19.7943  -21.7935 C   0  0  0  0  0  0
  -29.5865  -23.1495  -23.6325 C   0  0  0  0  0  0
  -29.0844  -23.9514  -22.8132 O   0  5  0  0  0  0
  -29.8866  -23.3953  -24.8223 O   0  0  0  0  0  0
  -31.3740  -22.1423  -20.4213 H   0  0  0  0  0  0
  -32.6091  -21.8584  -21.6460 H   0  0  0  0  0  0
  -31.5144  -23.2240  -21.8003 H   0  0  0  0  0  0
  -27.8959  -19.7151  -22.2473 H   0  0  0  0  0  0
  -27.9441  -18.5193  -25.0683 H   0  0  0  0  0  0
  -25.6823  -18.3222  -24.6001 H   0  0  0  0  0  0
  -23.7175  -18.4258  -23.4781 H   0  0  0  0  0  0
  -23.3811  -22.1393  -24.3010 H   0  0  0  0  0  0
  -22.3797  -22.9612  -26.4185 H   0  0  0  0  0  0
  -21.5706  -21.3480  -28.1229 H   0  0  0  0  0  0
  -21.7668  -18.9035  -27.7016 H   0  0  0  0  0  0
  -22.7684  -18.0844  -25.6126 H   0  0  0  0  0  0
  -22.7300  -19.2605  -21.7503 H   0  0  0  0  0  0
  -23.7166  -20.5331  -21.7449 H   0  0  0  0  0  0
  -31.8160  -19.5254  -21.6875 H   0  0  0  0  0  0
  -30.3060  -19.6973  -20.8134 H   0  0  0  0  0  0
  1  2  1  0  0  0
  1 25  1  0  0  0
  1 26  1  0  0  0
  1 27  1  0  0  0
  2 21  1  0  0  0
  2  3  2  0  0  0
  3  4  1  0  0  0
  3 22  1  0  0  0
  4  7  1  0  0  0
  4  5  1  0  0  0
  5  6  1  0  0  0
  5 20  1  0  0  0
  5 28  1  0  0  0
  6  7  1  0  0  0
  6  9  1  0  0  0
  6 29  1  0  0  0
  7  8  2  0  0  0
  9 10  1  0  0  0
  9 30  1  0  0  0
 10 11  1  0  0  0
 10 19  2  0  0  0
 11 12  1  0  0  0
 11 18  1  0  0  0
 11 31  1  0  0  0
 12 17  1  0  0  0
 12 13  2  0  0  0
 13 14  1  0  0  0
 13 32  1  0  0  0
 14 15  2  0  0  0
 14 33  1  0  0  0
 15 16  1  0  0  0
 15 34  1  0  0  0
 16 17  2  0  0  0
 16 35  1  0  0  0
 17 36  1  0  0  0
 18 37  1  0  0  0
 18 38  1  0  0  0
 20 21  1  0  0  0
 21 39  1  0  0  0
 21 40  1  0  0  0
 22 23  1  0  0  0
 22 24  2  0  0  0
M  CHG  1  23  -1
M  END
> <s_m_entry_id>
27552

> <s_m_entry_name>
data_maestro.14

> <s_m_Source_Path>
C:\Users\olshana1\Git\GramNeg-Accumulation\Gram Negative Permeation - OmpF

> <s_m_Source_File>
data_maestro.csv

> <i_m_Source_File_Index>
14

> <s_m_job_name>
glide-dock_Nicaido_neutral

> <s_i_glide_gridfile>
3POX-grid

> <i_i_glide_lignum>
19

> <i_i_glide_rotatable_bonds>
5

> <r_i_docking_score>
-4.64392739143245

> <r_i_glide_ligand_efficiency>
-0.193496974643019

> <r_i_glide_ligand_efficiency_sa>
-0.558141856478086

> <r_i_glide_ligand_efficiency_ln>
-1.11150492071226

> <r_i_glide_gscore>
-4.75912739143245

> <r_i_glide_lipo>
-0.328794945213255

> <r_i_glide_hbond>
-0.737433101273267

> <r_i_glide_metal>
0

> <r_i_glide_rewards>
-1.04734778889733

> <r_i_glide_evdw>
-24.8398857116699

> <r_i_glide_ecoul>
-9.8327751159668

> <r_i_glide_erotb>
0.475363118437828

> <r_i_glide_esite>
-0.404004121507905

> <r_i_glide_emodel>
-53.8828162823348

> <r_i_glide_energy>
-34.6726608276367

> <r_i_glide_einternal>
5.19938325881958

> <i_i_glide_confnum>
4

> <i_i_glide_posenum>
318

> <r_i_glide_eff_state_penalty>
0.1152

> <r_glide_res:A132_vdw>
-0.837086166562272

> <r_glide_res:A132_coul>
-33.4195690603986

> <r_glide_res:A132_hbond>
0

> <r_glide_res:A132_dist>
3.02315679351408

> <r_glide_res:A132_Eint>
-34.2566552269609

> <r_glide_res:A117_vdw>
-4.90668018571266

> <r_glide_res:A117_coul>
7.23513745448819

> <r_glide_res:A117_hbond>
-0.16

> <r_glide_res:A117_dist>
1.98226835256942

> <r_glide_res:A117_Eint>
2.16845726877554

> <r_glide_res:A113_vdw>
-1.72038057223962

> <r_glide_res:A113_coul>
23.2727969285042

> <r_glide_res:A113_hbond>
0

> <r_glide_res:A113_dist>
2.24066076440452

> <r_glide_res:A113_Eint>
21.5524163562646

> <r_glide_res:A82_vdw>
-0.440291809970113

> <r_glide_res:A82_coul>
-50.2488965116162

> <r_glide_res:A82_hbond>
-0.217433101273267

> <r_glide_res:A82_dist>
1.9085978181802

> <r_glide_res:A82_Eint>
-50.9066214228595

> <r_glide_res:A42_vdw>
1.01431944539467

> <r_glide_res:A42_coul>
-52.0447723293059

> <r_glide_res:A42_hbond>
-0.36

> <r_glide_res:A42_dist>
1.71398723496003

> <r_glide_res:A42_Eint>
-51.3904528839112

> <r_glide_res:A16_vdw>
-0.634287041698673

> <r_glide_res:A16_coul>
-30.8900619762409

> <r_glide_res:A16_hbond>
0

> <r_glide_res:A16_dist>
3.72168754910486

> <r_glide_res:A16_Eint>
-31.5243490179396

> <s_m_source_file>
ligprep_Nicaido_neutral.maegz

> <i_m_source_file_index>
14

> <i_lp_mmshare_version>
58128

> <i_f3d_flags>
0

> <s_lp_Force_Field>
S-OPLS

> <r_lp_Energy>
47.820483

> <b_lp_Chiralities_Consistent>
1

> <s_lp_Variant>
Cephalexin-1

> <s_epik_input>
W09IXUMoPU8pQzE9QyhbQ0gzXSlbQ0gyXVNbQ0BASF0oTjEyKVtDQEhdKEMyPU8pW05IXUMoPU8pW0NAQEhdKFtOSDJdKWMzW2NIXVtjSF1bY0hdW2NIXVtjSF0z

> <s_epik_cmdline>
J2VwaWtfcHl0aG9uJywgJy1waHQnLCAnMC4wJywgJy1waCcsICc3LjQnLCAnLW50JywgJy1tYScsICc1MDAnLCAnLWltYWUnLCAnPGluZmlsZS5tYWU+JywgJy1vbWFlJywgJzxvdXRmaWxlLm1hZT4n

> <r_epik_Ionization_Penalty>
  0.1152

> <r_epik_Ionization_Penalty_Charging>
  0.0000

> <r_epik_Ionization_Penalty_Neutral>
  0.1152

> <r_epik_State_Penalty>
  0.1152

> <r_epik_Charging_Adjusted_Penalty>
0.115182589938214

> <i_epik_Tot_Q>
-1

> <i_epik_Tot_abs_Q>
1

> <s_epik_Chemistry_Notes>
This compound contains an acetal/aminal-like group ( X-CH(R)-Y where X, Y are N, S, or O) that may be acid/base labile, releasing an aldehyde.

> <s_m_subgroup_title>
glide-dock_Nicaido_neutral_pv1

> <s_m_subgroupid>
glide-dock_Nicaido_neutral_pv1

> <b_m_subgroup_collapsed>
0

$$$$
LY097964
                    3D
 Schrodinger Suite 2022-2.
 40 42  0  0  1  0            999 V2000
  -34.2067  -22.2934  -28.4991 C   0  0  0  0  0  0
  -33.1771  -22.0763  -27.5483 O   0  0  0  0  0  0
  -33.6607  -22.4984  -26.2961 N   0  0  0  0  0  0
  -32.8614  -22.3085  -25.3173 C   0  0  0  0  0  0
  -33.2908  -22.7024  -23.9409 C   0  0  0  0  0  0
  -33.5683  -24.0191  -23.6501 C   0  0  0  0  0  0
  -33.9672  -24.2519  -21.9678 S   0  0  0  0  0  0
  -33.7737  -22.5236  -21.7177 C   0  0  0  0  0  0
  -33.9722  -21.9504  -20.4740 N   0  0  0  0  0  0
  -33.4323  -21.8592  -22.8238 N   0  0  0  0  0  0
  -31.4265  -21.7818  -25.4167 C   0  0  0  0  0  0
  -31.0009  -21.1832  -24.2950 N   0  0  0  0  0  0
  -29.6454  -20.7496  -23.9794 C   0  0  1  0  0  0
  -29.4225  -20.8237  -22.4611 C   0  0  1  0  0  0
  -28.1807  -21.5204  -22.7583 N   0  0  0  0  0  0
  -28.5774  -21.8665  -24.0406 C   0  0  0  0  0  0
  -28.2521  -22.7455  -24.8122 O   0  0  0  0  0  0
  -27.4323  -22.0211  -21.6776 C   0  0  0  0  0  0
  -27.0302  -23.5502  -21.7449 C   0  0  0  0  0  0
  -26.0151  -23.9475  -21.1263 O   0  5  0  0  0  0
  -27.7727  -24.3108  -22.4123 O   0  0  0  0  0  0
  -27.1909  -21.1846  -20.6326 C   0  0  0  0  0  0
  -27.5123  -19.6926  -20.7284 C   0  0  0  0  0  0
  -29.1301  -19.3241  -21.4690 S   0  0  0  0  0  0
  -26.4635  -21.5584  -19.3486 C   0  0  0  0  0  0
  -30.7143  -21.9461  -26.4132 O   0  0  0  0  0  0
  -33.8763  -21.9700  -29.4854 H   0  0  0  0  0  0
  -34.4667  -23.3515  -28.5687 H   0  0  0  0  0  0
  -35.1076  -21.7267  -28.2501 H   0  0  0  0  0  0
  -33.5473  -24.8674  -24.3204 H   0  0  0  0  0  0
  -33.7995  -20.9656  -20.2986 H   0  0  0  0  0  0
  -34.0765  -22.5283  -19.6526 H   0  0  0  0  0  0
  -31.6794  -21.0827  -23.5475 H   0  0  0  0  0  0
  -29.3562  -19.7910  -24.4149 H   0  0  0  0  0  0
  -30.1197  -21.4887  -21.9423 H   0  0  0  0  0  0
  -27.4820  -19.2164  -19.7451 H   0  0  0  0  0  0
  -26.7405  -19.2128  -21.3331 H   0  0  0  0  0  0
  -26.9313  -21.0647  -18.4950 H   0  0  0  0  0  0
  -26.4931  -22.6244  -19.1335 H   0  0  0  0  0  0
  -25.4237  -21.2359  -19.3971 H   0  0  0  0  0  0
  1  2  1  0  0  0
  1 27  1  0  0  0
  1 28  1  0  0  0
  1 29  1  0  0  0
  2  3  1  0  0  0
  3  4  2  3  0  0
  4  5  1  0  0  0
  4 11  1  0  0  0
  5 10  1  0  0  0
  5  6  2  0  0  0
  6  7  1  0  0  0
  6 30  1  0  0  0
  7  8  1  0  0  0
  8  9  1  0  0  0
  8 10  2  0  0  0
  9 31  1  0  0  0
  9 32  1  0  0  0
 11 12  1  0  0  0
 11 26  2  0  0  0
 12 13  1  0  0  0
 12 33  1  0  0  0
 13 16  1  0  0  0
 13 14  1  0  0  0
 13 34  1  0  0  0
 14 24  1  0  0  0
 14 15  1  0  0  0
 14 35  1  0  0  0
 15 16  1  0  0  0
 15 18  1  0  0  0
 16 17  2  0  0  0
 18 19  1  0  0  0
 18 22  2  0  0  0
 19 20  1  0  0  0
 19 21  2  0  0  0
 22 23  1  0  0  0
 22 25  1  0  0  0
 23 24  1  0  0  0
 23 36  1  0  0  0
 23 37  1  0  0  0
 25 38  1  0  0  0
 25 39  1  0  0  0
 25 40  1  0  0  0
M  CHG  1  20  -1
M  END
> <s_m_entry_id>
27553

> <s_m_entry_name>
data_maestro.7

> <s_m_Source_Path>
C:\Users\olshana1\Git\GramNeg-Accumulation\Gram Negative Permeation - OmpF

> <s_m_Source_File>
data_maestro.csv

> <i_m_Source_File_Index>
7

> <s_m_job_name>
glide-dock_Nicaido_neutral

> <s_i_glide_gridfile>
3POX-grid

> <i_i_glide_lignum>
10

> <i_i_glide_rotatable_bonds>
6

> <r_i_docking_score>
-4.64299986692561

> <r_i_glide_ligand_efficiency>
-0.178576917958677

> <r_i_glide_ligand_efficiency_sa>
-0.52903341678634

> <r_i_glide_ligand_efficiency_ln>
-1.0903932838223

> <r_i_glide_gscore>
-4.64299986692561

> <r_i_glide_lipo>
0

> <r_i_glide_hbond>
-1.09772470288889

> <r_i_glide_metal>
0

> <r_i_glide_rewards>
-0.705300960869325

> <r_i_glide_evdw>
-18.1838912963867

> <r_i_glide_ecoul>
-13.4733200073242

> <r_i_glide_erotb>
0.622478626066327

> <r_i_glide_esite>
-0.532260263315754

> <r_i_glide_emodel>
-51.4025347619768

> <r_i_glide_energy>
-31.6572113037109

> <r_i_glide_einternal>
5.09151411056519

> <i_i_glide_confnum>
56

> <i_i_glide_posenum>
358

> <r_i_glide_eff_state_penalty>
0

> <r_glide_res:A132_vdw>
0.446099823176787

> <r_glide_res:A132_coul>
-46.9622950583887

> <r_glide_res:A132_hbond>
-0.212059941191149

> <r_glide_res:A132_dist>
1.78964556643074

> <r_glide_res:A132_Eint>
-46.728255176403

> <r_glide_res:A117_vdw>
-1.95168768603493

> <r_glide_res:A117_coul>
21.3384968916874

> <r_glide_res:A117_hbond>
0

> <r_glide_res:A117_dist>
2.80155779017951

> <r_glide_res:A117_Eint>
19.3868092056525

> <r_glide_res:A113_vdw>
-3.48827281134985

> <r_glide_res:A113_coul>
21.6059753451739

> <r_glide_res:A113_hbond>
-0.184288542718327

> <r_glide_res:A113_dist>
2.19943819812633

> <r_glide_res:A113_Eint>
17.9334139911057

> <r_glide_res:A82_vdw>
0.797098536642684

> <r_glide_res:A82_coul>
-49.5226569503385

> <r_glide_res:A82_hbond>
-0.212074688471934

> <r_glide_res:A82_dist>
1.66260647466687

> <r_glide_res:A82_Eint>
-48.9376331021677

> <r_glide_res:A42_vdw>
-0.836504772310407

> <r_glide_res:A42_coul>
-40.7543583182479

> <r_glide_res:A42_hbond>
-0.254109005355618

> <r_glide_res:A42_dist>
1.95943252430881

> <r_glide_res:A42_Eint>
-41.8449720959139

> <r_glide_res:A16_vdw>
-0.291700057332342

> <r_glide_res:A16_coul>
-34.9623111458249

> <r_glide_res:A16_hbond>
-0.113833507682732

> <r_glide_res:A16_dist>
1.92511862415847

> <r_glide_res:A16_Eint>
-35.3678447108399

> <s_m_source_file>
ligprep_Nicaido_neutral.maegz

> <i_m_source_file_index>
7

> <i_lp_mmshare_version>
58128

> <i_f3d_flags>
0

> <s_lp_Force_Field>
S-OPLS

> <r_lp_Energy>
53.916069

> <b_lp_Chiralities_Consistent>
1

> <s_lp_Variant>
LY097964-2

> <s_epik_input>
W05IMl1jKG4xKXNbY0hdYzEvQyg9TlxPW0NIM10pQyg9TylbTkhdW0NAQEhdMkMoPU8pTihbQ0BIXTIzKUMoQyg9TylbT0hdKT1DKFtDSDJdUzMpW0NIM10=

> <s_epik_cmdline>
J2VwaWtfcHl0aG9uJywgJy1waHQnLCAnMC4wJywgJy1waCcsICc3LjQnLCAnLW50JywgJy1tYScsICc1MDAnLCAnLWltYWUnLCAnPGluZmlsZS5tYWU+JywgJy1vbWFlJywgJzxvdXRmaWxlLm1hZT4n

> <r_lp_tautomer_probability>
1

> <r_epik_Ionization_Penalty>
  0.0005

> <r_epik_Ionization_Penalty_Charging>
  0.0000

> <r_epik_Ionization_Penalty_Neutral>
  0.0005

> <r_epik_State_Penalty>
  0.0000

> <r_epik_Charging_Adjusted_Penalty>
1.64985111359435e-05

> <i_epik_Tot_Q>
-1

> <i_epik_Tot_abs_Q>
1

> <s_epik_Chemistry_Notes>
This compound has an imine and may undergo hydrolysis. This compound contains an acetal/aminal-like group ( X-CH(R)-Y where X, Y are N, S, or O) that may be acid/base labile, releasing an aldehyde.

> <s_m_subgroup_title>
glide-dock_Nicaido_neutral_pv1

> <s_m_subgroupid>
glide-dock_Nicaido_neutral_pv1

> <b_m_subgroup_collapsed>
0

$$$$
Cephalexin
                    3D
 Schrodinger Suite 2022-2.
 40 42  0  0  1  0            999 V2000
  -31.5514  -22.2879  -21.6261 C   0  0  0  0  0  0
  -30.5678  -21.3213  -22.2734 C   0  0  0  0  0  0
  -29.5728  -21.6962  -23.1227 C   0  0  0  0  0  0
  -28.6706  -20.7768  -23.6739 N   0  0  0  0  0  0
  -28.3801  -19.5330  -22.9986 C   0  0  1  0  0  0
  -27.3289  -19.2739  -24.1060 C   0  0  2  0  0  0
  -27.5781  -20.7269  -24.5209 C   0  0  0  0  0  0
  -27.0263  -21.5503  -25.2134 O   0  0  0  0  0  0
  -25.9664  -19.0179  -23.6132 N   0  0  0  0  0  0
  -25.2544  -19.6724  -22.6750 C   0  0  0  0  0  0
  -23.9864  -18.9638  -22.1414 C   0  0  2  0  0  0
  -23.9117  -19.2692  -20.6773 C   0  0  0  0  0  0
  -22.9400  -20.1623  -20.1676 C   0  0  0  0  0  0
  -22.8633  -20.4602  -18.7925 C   0  0  0  0  0  0
  -23.7645  -19.8656  -17.8916 C   0  0  0  0  0  0
  -24.7371  -18.9729  -18.3729 C   0  0  0  0  0  0
  -24.8044  -18.6787  -19.7480 C   0  0  0  0  0  0
  -23.9698  -17.5182  -22.3756 N   0  0  0  0  0  0
  -25.5748  -20.7836  -22.2470 O   0  0  0  0  0  0
  -29.9663  -18.6470  -22.8828 S   0  0  0  0  0  0
  -30.7971  -19.8729  -21.8370 C   0  0  0  0  0  0
  -29.3559  -23.1524  -23.6024 C   0  0  0  0  0  0
  -28.8976  -23.9671  -22.7698 O   0  5  0  0  0  0
  -29.5684  -23.3742  -24.8135 O   0  0  0  0  0  0
  -31.4486  -22.2430  -20.5413 H   0  0  0  0  0  0
  -32.5738  -22.0046  -21.8762 H   0  0  0  0  0  0
  -31.4157  -23.3258  -21.9247 H   0  0  0  0  0  0
  -27.9640  -19.7089  -22.0045 H   0  0  0  0  0  0
  -27.6674  -18.5310  -24.8297 H   0  0  0  0  0  0
  -25.5451  -18.1723  -23.9808 H   0  0  0  0  0  0
  -23.1293  -19.3949  -22.6597 H   0  0  0  0  0  0
  -22.2396  -20.6295  -20.8436 H   0  0  0  0  0  0
  -22.1122  -21.1450  -18.4287 H   0  0  0  0  0  0
  -23.7122  -20.0907  -16.8365 H   0  0  0  0  0  0
  -25.4340  -18.5132  -17.6878 H   0  0  0  0  0  0
  -25.5624  -17.9933  -20.0987 H   0  0  0  0  0  0
  -23.2979  -17.2526  -23.0847 H   0  0  0  0  0  0
  -24.8678  -17.1721  -22.6897 H   0  0  0  0  0  0
  -31.8633  -19.6465  -21.8270 H   0  0  0  0  0  0
  -30.4358  -19.7598  -20.8140 H   0  0  0  0  0  0
  1  2  1  0  0  0
  1 25  1  0  0  0
  1 26  1  0  0  0
  1 27  1  0  0  0
  2 21  1  0  0  0
  2  3  2  0  0  0
  3  4  1  0  0  0
  3 22  1  0  0  0
  4  7  1  0  0  0
  4  5  1  0  0  0
  5  6  1  0  0  0
  5 20  1  0  0  0
  5 28  1  0  0  0
  6  7  1  0  0  0
  6  9  1  0  0  0
  6 29  1  0  0  0
  7  8  2  0  0  0
  9 10  1  0  0  0
  9 30  1  0  0  0
 10 11  1  0  0  0
 10 19  2  0  0  0
 11 12  1  0  0  0
 11 18  1  0  0  0
 11 31  1  0  0  0
 12 17  1  0  0  0
 12 13  2  0  0  0
 13 14  1  0  0  0
 13 32  1  0  0  0
 14 15  2  0  0  0
 14 33  1  0  0  0
 15 16  1  0  0  0
 15 34  1  0  0  0
 16 17  2  0  0  0
 16 35  1  0  0  0
 17 36  1  0  0  0
 18 37  1  0  0  0
 18 38  1  0  0  0
 20 21  1  0  0  0
 21 39  1  0  0  0
 21 40  1  0  0  0
 22 23  1  0  0  0
 22 24  2  0  0  0
M  CHG  1  23  -1
M  END
> <s_m_entry_id>
27554

> <s_m_entry_name>
data_maestro.14

> <s_m_Source_Path>
C:\Users\olshana1\Git\GramNeg-Accumulation\Gram Negative Permeation - OmpF

> <s_m_Source_File>
data_maestro.csv

> <i_m_Source_File_Index>
14

> <s_m_job_name>
glide-dock_Nicaido_neutral

> <s_i_glide_gridfile>
3POX-grid

> <i_i_glide_lignum>
19

> <i_i_glide_rotatable_bonds>
5

> <r_i_docking_score>
-4.63640252147771

> <r_i_glide_ligand_efficiency>
-0.193183438394904

> <r_i_glide_ligand_efficiency_sa>
-0.557237461440807

> <r_i_glide_ligand_efficiency_ln>
-1.10970387403831

> <r_i_glide_gscore>
-4.75160252147771

> <r_i_glide_lipo>
0

> <r_i_glide_hbond>
-1.10813190978801

> <r_i_glide_metal>
0

> <r_i_glide_rewards>
-1.02906497136196

> <r_i_glide_evdw>
-20.7695655822754

> <r_i_glide_ecoul>
-11.1579160690308

> <r_i_glide_erotb>
0.475363118437828

> <r_i_glide_esite>
-0.377603069297176

> <r_i_glide_emodel>
-49.9786391467758

> <r_i_glide_energy>
-31.9274816513062

> <r_i_glide_einternal>
7.34393644332886

> <i_i_glide_confnum>
7

> <i_i_glide_posenum>
125

> <r_i_glide_eff_state_penalty>
0.1152

> <r_glide_res:A132_vdw>
-0.907088523645921

> <r_glide_res:A132_coul>
-34.4982147856564

> <r_glide_res:A132_hbond>
0

> <r_glide_res:A132_dist>
2.932892504724

> <r_glide_res:A132_Eint>
-35.4053033093023

> <r_glide_res:A117_vdw>
-4.32887038895148

> <r_glide_res:A117_coul>
7.01108072156159

> <r_glide_res:A117_hbond>
-0.185429215018451

> <r_glide_res:A117_dist>
2.1361564114957

> <r_glide_res:A117_Eint>
2.49678111759166

> <r_glide_res:A113_vdw>
-1.96808522928522

> <r_glide_res:A113_coul>
24.138759335535

> <r_glide_res:A113_hbond>
0

> <r_glide_res:A113_dist>
2.20690070644887

> <r_glide_res:A113_Eint>
22.1706741062498

> <r_glide_res:A82_vdw>
-0.478594776454025

> <r_glide_res:A82_coul>
-50.19827493526

> <r_glide_res:A82_hbond>
-0.268308897823184

> <r_glide_res:A82_dist>
1.95910720115711

> <r_glide_res:A82_Eint>
-50.9451786095372

> <r_glide_res:A42_vdw>
1.38000682795479

> <r_glide_res:A42_coul>
-51.5680035710238

> <r_glide_res:A42_hbond>
-0.351464598982125

> <r_glide_res:A42_dist>
1.74312154684523

> <r_glide_res:A42_Eint>
-50.5394613420511

> <r_glide_res:A16_vdw>
-0.475457511450303

> <r_glide_res:A16_coul>
-29.2668328686932

> <r_glide_res:A16_hbond>
0

> <r_glide_res:A16_dist>
4.0439487649709

> <r_glide_res:A16_Eint>
-29.7422903801435

> <s_m_source_file>
ligprep_Nicaido_neutral.maegz

> <i_m_source_file_index>
14

> <i_lp_mmshare_version>
58128

> <i_f3d_flags>
0

> <s_lp_Force_Field>
S-OPLS

> <r_lp_Energy>
47.820483

> <b_lp_Chiralities_Consistent>
1

> <s_lp_Variant>
Cephalexin-1

> <s_epik_input>
W09IXUMoPU8pQzE9QyhbQ0gzXSlbQ0gyXVNbQ0BASF0oTjEyKVtDQEhdKEMyPU8pW05IXUMoPU8pW0NAQEhdKFtOSDJdKWMzW2NIXVtjSF1bY0hdW2NIXVtjSF0z

> <s_epik_cmdline>
J2VwaWtfcHl0aG9uJywgJy1waHQnLCAnMC4wJywgJy1waCcsICc3LjQnLCAnLW50JywgJy1tYScsICc1MDAnLCAnLWltYWUnLCAnPGluZmlsZS5tYWU+JywgJy1vbWFlJywgJzxvdXRmaWxlLm1hZT4n

> <r_epik_Ionization_Penalty>
  0.1152

> <r_epik_Ionization_Penalty_Charging>
  0.0000

> <r_epik_Ionization_Penalty_Neutral>
  0.1152

> <r_epik_State_Penalty>
  0.1152

> <r_epik_Charging_Adjusted_Penalty>
0.115182589938214

> <i_epik_Tot_Q>
-1

> <i_epik_Tot_abs_Q>
1

> <s_epik_Chemistry_Notes>
This compound contains an acetal/aminal-like group ( X-CH(R)-Y where X, Y are N, S, or O) that may be acid/base labile, releasing an aldehyde.

> <s_m_subgroup_title>
glide-dock_Nicaido_neutral_pv1

> <s_m_subgroupid>
glide-dock_Nicaido_neutral_pv1

> <b_m_subgroup_collapsed>
0

$$$$
Moxalactam
                    3D
 Schrodinger Suite 2022-2.
 54 57  0  0  1  0            999 V2000
  -26.5161  -21.6507  -17.8570 C   0  0  0  0  0  0
  -25.7195  -22.8558  -17.9843 N   0  0  0  0  0  0
  -24.6344  -23.2874  -17.3239 C   0  0  0  0  0  0
  -23.8531  -22.3675  -16.0318 S   0  0  0  0  0  0
  -22.1458  -23.0194  -16.0879 C   0  0  0  0  0  0
  -21.4838  -23.0287  -17.4684 C   0  0  0  0  0  0
  -20.9284  -24.0967  -18.1192 C   0  0  0  0  0  0
  -20.8239  -25.5982  -17.5908 C   0  0  0  0  0  0
  -19.9693  -26.3492  -18.1167 O   0  5  0  0  0  0
  -21.5692  -25.9491  -16.6520 O   0  0  0  0  0  0
  -20.3705  -23.8357  -19.3864 N   0  0  0  0  0  0
  -20.1224  -22.4726  -19.8312 C   0  0  2  0  0  0
  -21.2821  -21.7218  -19.5244 O   0  0  0  0  0  0
  -21.4662  -21.6412  -18.1194 C   0  0  0  0  0  0
  -20.0510  -23.0422  -21.2549 C   0  0  1  0  0  0
  -19.8734  -24.4180  -20.5463 C   0  0  0  0  0  0
  -19.5041  -25.5350  -20.8417 O   0  0  0  0  0  0
  -21.3169  -22.8960  -21.9835 N   0  0  0  0  0  0
  -21.6216  -23.5519  -23.1105 C   0  0  0  0  0  0
  -22.9767  -23.2233  -23.7731 C   0  0  2  0  0  0
  -23.5701  -24.5114  -24.4210 C   0  0  0  0  0  0
  -23.6635  -25.5417  -23.7103 O   0  5  0  0  0  0
  -23.9696  -24.4793  -25.6071 O   0  0  0  0  0  0
  -22.7688  -22.0593  -24.7523 C   0  0  0  0  0  0
  -22.1010  -22.2248  -25.9901 C   0  0  0  0  0  0
  -21.8529  -21.1197  -26.8254 C   0  0  0  0  0  0
  -22.2371  -19.8288  -26.4223 C   0  0  0  0  0  0
  -21.9694  -18.7501  -27.2127 O   0  0  0  0  0  0
  -22.8895  -19.6505  -25.1894 C   0  0  0  0  0  0
  -23.1645  -20.7592  -24.3652 C   0  0  0  0  0  0
  -20.8326  -24.3495  -23.6141 O   0  0  0  0  0  0
  -18.8792  -22.6579  -21.9745 O   0  0  0  0  0  0
  -18.9086  -21.3365  -22.4971 C   0  0  0  0  0  0
  -24.2674  -24.4812  -17.7790 N   0  0  0  0  0  0
  -25.1696  -24.7497  -18.7860 N   0  0  0  0  0  0
  -26.0410  -23.7940  -18.9097 N   0  0  0  0  0  0
  -26.0011  -20.9093  -17.2465 H   0  0  0  0  0  0
  -27.4685  -21.8941  -17.3861 H   0  0  0  0  0  0
  -26.7066  -21.2221  -18.8403 H   0  0  0  0  0  0
  -21.5406  -22.3881  -15.4374 H   0  0  0  0  0  0
  -22.1659  -23.9892  -15.6138 H   0  0  0  0  0  0
  -19.1848  -22.0621  -19.4470 H   0  0  0  0  0  0
  -22.4026  -21.1093  -17.9605 H   0  0  0  0  0  0
  -20.6791  -21.0374  -17.6656 H   0  0  0  0  0  0
  -21.9851  -22.2515  -21.5859 H   0  0  0  0  0  0
  -23.6801  -22.9143  -22.9987 H   0  0  0  0  0  0
  -21.7675  -23.2020  -26.3074 H   0  0  0  0  0  0
  -21.3514  -21.2677  -27.7693 H   0  0  0  0  0  0
  -21.6589  -18.9545  -28.0846 H   0  0  0  0  0  0
  -23.1737  -18.6583  -24.8715 H   0  0  0  0  0  0
  -23.6567  -20.5967  -23.4172 H   0  0  0  0  0  0
  -17.9466  -21.1077  -22.9557 H   0  0  0  0  0  0
  -19.0898  -20.6015  -21.7122 H   0  0  0  0  0  0
  -19.6728  -21.2217  -23.2667 H   0  0  0  0  0  0
  1  2  1  0  0  0
  1 37  1  0  0  0
  1 38  1  0  0  0
  1 39  1  0  0  0
  2 36  1  0  0  0
  2  3  1  0  0  0
  3  4  1  0  0  0
  3 34  2  0  0  0
  4  5  1  0  0  0
  5  6  1  0  0  0
  5 40  1  0  0  0
  5 41  1  0  0  0
  6 14  1  0  0  0
  6  7  2  0  0  0
  7  8  1  0  0  0
  7 11  1  0  0  0
  8  9  1  0  0  0
  8 10  2  0  0  0
 11 16  1  0  0  0
 11 12  1  0  0  0
 12 13  1  0  0  0
 12 15  1  0  0  0
 12 42  1  0  0  0
 13 14  1  0  0  0
 14 43  1  0  0  0
 14 44  1  0  0  0
 15 16  1  0  0  0
 15 18  1  0  0  0
 15 32  1  0  0  0
 16 17  2  0  0  0
 18 19  1  0  0  0
 18 45  1  0  0  0
 19 20  1  0  0  0
 19 31  2  0  0  0
 20 21  1  0  0  0
 20 24  1  0  0  0
 20 46  1  0  0  0
 21 22  1  0  0  0
 21 23  2  0  0  0
 24 30  1  0  0  0
 24 25  2  0  0  0
 25 26  1  0  0  0
 25 47  1  0  0  0
 26 27  2  0  0  0
 26 48  1  0  0  0
 27 28  1  0  0  0
 27 29  1  0  0  0
 28 49  1  0  0  0
 29 30  2  0  0  0
 29 50  1  0  0  0
 30 51  1  0  0  0
 32 33  1  0  0  0
 33 52  1  0  0  0
 33 53  1  0  0  0
 33 54  1  0  0  0
 34 35  1  0  0  0
 35 36  2  0  0  0
M  CHG  2   9  -1  22  -1
M  END
> <s_m_entry_id>
27555

> <s_m_entry_name>
data_maestro.20

> <s_m_Source_Path>
C:\Users\olshana1\Git\GramNeg-Accumulation\Gram Negative Permeation - OmpF

> <s_m_Source_File>
data_maestro.csv

> <i_m_Source_File_Index>
20

> <s_m_job_name>
glide-dock_Nicaido_neutral

> <s_i_glide_gridfile>
3POX-grid

> <i_i_glide_lignum>
25

> <i_i_glide_rotatable_bonds>
11

> <r_i_docking_score>
-4.63509801458073

> <r_i_glide_ligand_efficiency>
-0.128752722627243

> <r_i_glide_ligand_efficiency_sa>
-0.425132122704441

> <r_i_glide_ligand_efficiency_ln>
-1.0112531609048

> <r_i_glide_gscore>
-4.63509801458073

> <r_i_glide_lipo>
-0.11969493109635

> <r_i_glide_hbond>
-0.837610616915872

> <r_i_glide_metal>
0

> <r_i_glide_rewards>
1.76556967037871e-08

> <r_i_glide_evdw>
-32.5245170593262

> <r_i_glide_ecoul>
-13.203688621521

> <r_i_glide_erotb>
0.534860792752126

> <r_i_glide_esite>
-0.605874130781875

> <r_i_glide_emodel>
-75.4106122646946

> <r_i_glide_energy>
-45.7282056808472

> <r_i_glide_einternal>
5.71492910385132

> <i_i_glide_confnum>
99

> <i_i_glide_posenum>
354

> <r_i_glide_eff_state_penalty>
0

> <r_glide_res:A132_vdw>
-1.73976045820269

> <r_glide_res:A132_coul>
-54.885895645998

> <r_glide_res:A132_hbond>
0

> <r_glide_res:A132_dist>
2.46433233307093

> <r_glide_res:A132_Eint>
-56.6256561042007

> <r_glide_res:A117_vdw>
-1.19693008972969

> <r_glide_res:A117_coul>
33.1213587896294

> <r_glide_res:A117_hbond>
0

> <r_glide_res:A117_dist>
2.40206879654183

> <r_glide_res:A117_Eint>
31.9244286998997

> <r_glide_res:A113_vdw>
-0.423385454410686

> <r_glide_res:A113_coul>
27.3103135330918

> <r_glide_res:A113_hbond>
0

> <r_glide_res:A113_dist>
3.85546015856678

> <r_glide_res:A113_Eint>
26.8869280786811

> <r_glide_res:A82_vdw>
-1.4753227592679

> <r_glide_res:A82_coul>
-54.5064241855874

> <r_glide_res:A82_hbond>
0

> <r_glide_res:A82_dist>
2.79370934630854

> <r_glide_res:A82_Eint>
-55.9817469448553

> <r_glide_res:A42_vdw>
-0.720699136749154

> <r_glide_res:A42_coul>
-52.1640447177744

> <r_glide_res:A42_hbond>
-0.0484356644709591

> <r_glide_res:A42_dist>
2.27939176133595

> <r_glide_res:A42_Eint>
-52.9331795189945

> <r_glide_res:A16_vdw>
-0.070237025780418

> <r_glide_res:A16_coul>
-28.4296415606115

> <r_glide_res:A16_hbond>
0

> <r_glide_res:A16_dist>
7.37641611902558

> <r_glide_res:A16_Eint>
-28.4998785863919

> <s_m_source_file>
ligprep_Nicaido_neutral.maegz

> <i_m_source_file_index>
20

> <i_lp_mmshare_version>
58128

> <i_f3d_flags>
0

> <s_lp_Force_Field>
S-OPLS

> <r_lp_Energy>
52.146636

> <b_lp_Chiralities_Consistent>
1

> <s_lp_Variant>
Moxalactam-1

> <s_epik_input>
bjFubmMobjFbQ0gzXSlTW0NIMl1DKD1DMkMoPU8pW09IXSlbQ0gyXU9bQ0BASF0oTjIzKVtDQF0oQzM9TykoT1tDSDNdKVtOSF1DKD1PKVtDQEhdKEMoPU8pW09IXSljNFtjSF1bY0hdYyhbT0hdKVtjSF1bY0hdNA==

> <s_epik_cmdline>
J2VwaWtfcHl0aG9uJywgJy1waHQnLCAnMC4wJywgJy1waCcsICc3LjQnLCAnLW50JywgJy1tYScsICc1MDAnLCAnLWltYWUnLCAnPGluZmlsZS5tYWU+JywgJy1vbWFlJywgJzxvdXRmaWxlLm1hZT4n

> <r_lp_tautomer_probability>
1

> <r_epik_Ionization_Penalty>
  0.0029

> <r_epik_Ionization_Penalty_Charging>
  0.0001

> <r_epik_Ionization_Penalty_Neutral>
  0.0029

> <r_epik_State_Penalty>
  0.0000

> <r_epik_Charging_Adjusted_Penalty>
5.78268703870383e-05

> <i_epik_Tot_Q>
-2

> <i_epik_Tot_abs_Q>
2

> <s_epik_Chemistry_Notes>
This compound contains an acetal/aminal-like group ( X-CH(R)-Y where X, Y are N, S, or O) that may be acid/base labile, releasing an aldehyde.

> <s_m_subgroup_title>
glide-dock_Nicaido_neutral_pv1

> <s_m_subgroupid>
glide-dock_Nicaido_neutral_pv1

> <b_m_subgroup_collapsed>
0

$$$$
LY097964
                    3D
 Schrodinger Suite 2022-2.
 40 42  0  0  1  0            999 V2000
  -24.7669  -24.9632  -17.7452 C   0  0  0  0  0  0
  -25.5926  -24.3408  -18.7085 O   0  0  0  0  0  0
  -25.2124  -22.9936  -18.7594 N   0  0  0  0  0  0
  -26.0405  -22.2085  -19.3335 C   0  0  0  0  0  0
  -25.6844  -20.7576  -19.3477 C   0  0  0  0  0  0
  -25.7112  -19.9873  -20.4918 C   0  0  0  0  0  0
  -25.1569  -18.3589  -20.2067 S   0  0  0  0  0  0
  -24.8643  -18.7941  -18.5336 C   0  0  0  0  0  0
  -24.3666  -17.8818  -17.6213 N   0  0  0  0  0  0
  -25.1681  -20.0596  -18.2457 N   0  0  0  0  0  0
  -27.3584  -22.6206  -20.0150 C   0  0  0  0  0  0
  -28.2251  -21.6043  -20.2011 N   0  0  0  0  0  0
  -29.4301  -21.5714  -21.0416 C   0  0  1  0  0  0
  -29.4527  -20.2576  -21.8566 C   0  0  1  0  0  0
  -29.5298  -21.0630  -23.0577 N   0  0  0  0  0  0
  -29.3217  -22.2793  -22.4278 C   0  0  0  0  0  0
  -29.1297  -23.4020  -22.8532 O   0  0  0  0  0  0
  -29.5710  -20.4874  -24.3424 C   0  0  0  0  0  0
  -29.1198  -21.4360  -25.4987 C   0  0  0  0  0  0
  -27.9813  -21.9495  -25.3871 O   0  5  0  0  0  0
  -29.9509  -21.6456  -26.4133 O   0  0  0  0  0  0
  -29.9180  -19.1844  -24.5423 C   0  0  0  0  0  0
  -30.3758  -18.2496  -23.4215 C   0  0  0  0  0  0
  -30.8556  -19.1061  -21.8992 S   0  0  0  0  0  0
  -29.8705  -18.4765  -25.8913 C   0  0  0  0  0  0
  -27.5689  -23.7774  -20.3990 O   0  0  0  0  0  0
  -25.1628  -25.9496  -17.5199 H   0  0  0  0  0  0
  -23.7431  -25.0649  -18.1067 H   0  0  0  0  0  0
  -24.7542  -24.3987  -16.8127 H   0  0  0  0  0  0
  -26.0189  -20.2687  -21.4881 H   0  0  0  0  0  0
  -24.4667  -18.0815  -16.6368 H   0  0  0  0  0  0
  -24.3645  -16.8997  -17.8553 H   0  0  0  0  0  0
  -28.0069  -20.7219  -19.7579 H   0  0  0  0  0  0
  -30.3578  -21.7447  -20.4943 H   0  0  0  0  0  0
  -28.5093  -19.7069  -21.8286 H   0  0  0  0  0  0
  -29.5698  -17.5525  -23.1942 H   0  0  0  0  0  0
  -31.2257  -17.6539  -23.7548 H   0  0  0  0  0  0
  -29.2704  -17.5689  -25.8098 H   0  0  0  0  0  0
  -29.4361  -19.0733  -26.6905 H   0  0  0  0  0  0
  -30.8756  -18.1848  -26.1955 H   0  0  0  0  0  0
  1  2  1  0  0  0
  1 27  1  0  0  0
  1 28  1  0  0  0
  1 29  1  0  0  0
  2  3  1  0  0  0
  3  4  2  3  0  0
  4  5  1  0  0  0
  4 11  1  0  0  0
  5 10  1  0  0  0
  5  6  2  0  0  0
  6  7  1  0  0  0
  6 30  1  0  0  0
  7  8  1  0  0  0
  8  9  1  0  0  0
  8 10  2  0  0  0
  9 31  1  0  0  0
  9 32  1  0  0  0
 11 12  1  0  0  0
 11 26  2  0  0  0
 12 13  1  0  0  0
 12 33  1  0  0  0
 13 16  1  0  0  0
 13 14  1  0  0  0
 13 34  1  0  0  0
 14 24  1  0  0  0
 14 15  1  0  0  0
 14 35  1  0  0  0
 15 16  1  0  0  0
 15 18  1  0  0  0
 16 17  2  0  0  0
 18 19  1  0  0  0
 18 22  2  0  0  0
 19 20  1  0  0  0
 19 21  2  0  0  0
 22 23  1  0  0  0
 22 25  1  0  0  0
 23 24  1  0  0  0
 23 36  1  0  0  0
 23 37  1  0  0  0
 25 38  1  0  0  0
 25 39  1  0  0  0
 25 40  1  0  0  0
M  CHG  1  20  -1
M  END
> <s_m_entry_id>
27556

> <s_m_entry_name>
data_maestro.7

> <s_m_Source_Path>
C:\Users\olshana1\Git\GramNeg-Accumulation\Gram Negative Permeation - OmpF

> <s_m_Source_File>
data_maestro.csv

> <i_m_Source_File_Index>
7

> <s_m_job_name>
glide-dock_Nicaido_neutral

> <s_i_glide_gridfile>
3POX-grid

> <i_i_glide_lignum>
10

> <i_i_glide_rotatable_bonds>
6

> <r_i_docking_score>
-4.63327450265995

> <r_i_glide_ligand_efficiency>
-0.178202865486921

> <r_i_glide_ligand_efficiency_sa>
-0.527925287810587

> <r_i_glide_ligand_efficiency_ln>
-1.08810931393603

> <r_i_glide_gscore>
-4.63327450265995

> <r_i_glide_lipo>
0

> <r_i_glide_hbond>
-0.716328713843522

> <r_i_glide_metal>
0

> <r_i_glide_rewards>
-0.684152636707905

> <r_i_glide_evdw>
-31.7311706542969

> <r_i_glide_ecoul>
-11.1018095016479

> <r_i_glide_erotb>
0.622478626066327

> <r_i_glide_esite>
-0.60344182021281

> <r_i_glide_emodel>
-63.6774256744226

> <r_i_glide_energy>
-42.8329801559448

> <r_i_glide_einternal>
2.67902851104736

> <i_i_glide_confnum>
26

> <i_i_glide_posenum>
164

> <r_i_glide_eff_state_penalty>
0

> <r_glide_res:A132_vdw>
-1.96389036478857

> <r_glide_res:A132_coul>
-35.2266855689076

> <r_glide_res:A132_hbond>
-0.16

> <r_glide_res:A132_dist>
2.03403792857821

> <r_glide_res:A132_Eint>
-37.3505759336962

> <r_glide_res:A117_vdw>
-4.51938078486268

> <r_glide_res:A117_coul>
22.2824843528733

> <r_glide_res:A117_hbond>
0

> <r_glide_res:A117_dist>
2.29995535400544

> <r_glide_res:A117_Eint>
17.7631035680106

> <r_glide_res:A113_vdw>
-3.64995776940703

> <r_glide_res:A113_coul>
16.3338232613763

> <r_glide_res:A113_hbond>
0

> <r_glide_res:A113_dist>
2.52307857384155

> <r_glide_res:A113_Eint>
12.6838654919693

> <r_glide_res:A82_vdw>
-1.63402491110113

> <r_glide_res:A82_coul>
-39.2122309711784

> <r_glide_res:A82_hbond>
-0.0412175260962335

> <r_glide_res:A82_dist>
2.39676013302684

> <r_glide_res:A82_Eint>
-40.8874734083758

> <r_glide_res:A42_vdw>
1.06141416726834

> <r_glide_res:A42_coul>
-53.4133095749999

> <r_glide_res:A42_hbond>
-0.315111187747288

> <r_glide_res:A42_dist>
1.73020556427352

> <r_glide_res:A42_Eint>
-52.6670065954789

> <r_glide_res:A16_vdw>
0.160438312327806

> <r_glide_res:A16_coul>
-47.5865455220546

> <r_glide_res:A16_hbond>
-0.2

> <r_glide_res:A16_dist>
1.80634032151225

> <r_glide_res:A16_Eint>
-47.6261072097268

> <s_m_source_file>
ligprep_Nicaido_neutral.maegz

> <i_m_source_file_index>
7

> <i_lp_mmshare_version>
58128

> <i_f3d_flags>
0

> <s_lp_Force_Field>
S-OPLS

> <r_lp_Energy>
53.916069

> <b_lp_Chiralities_Consistent>
1

> <s_lp_Variant>
LY097964-2

> <s_epik_input>
W05IMl1jKG4xKXNbY0hdYzEvQyg9TlxPW0NIM10pQyg9TylbTkhdW0NAQEhdMkMoPU8pTihbQ0BIXTIzKUMoQyg9TylbT0hdKT1DKFtDSDJdUzMpW0NIM10=

> <s_epik_cmdline>
J2VwaWtfcHl0aG9uJywgJy1waHQnLCAnMC4wJywgJy1waCcsICc3LjQnLCAnLW50JywgJy1tYScsICc1MDAnLCAnLWltYWUnLCAnPGluZmlsZS5tYWU+JywgJy1vbWFlJywgJzxvdXRmaWxlLm1hZT4n

> <r_lp_tautomer_probability>
1

> <r_epik_Ionization_Penalty>
  0.0005

> <r_epik_Ionization_Penalty_Charging>
  0.0000

> <r_epik_Ionization_Penalty_Neutral>
  0.0005

> <r_epik_State_Penalty>
  0.0000

> <r_epik_Charging_Adjusted_Penalty>
1.64985111359435e-05

> <i_epik_Tot_Q>
-1

> <i_epik_Tot_abs_Q>
1

> <s_epik_Chemistry_Notes>
This compound has an imine and may undergo hydrolysis. This compound contains an acetal/aminal-like group ( X-CH(R)-Y where X, Y are N, S, or O) that may be acid/base labile, releasing an aldehyde.

> <s_m_subgroup_title>
glide-dock_Nicaido_neutral_pv1

> <s_m_subgroupid>
glide-dock_Nicaido_neutral_pv1

> <b_m_subgroup_collapsed>
0

$$$$
Cephaloglycin
                    3D
 Schrodinger Suite 2022-2.
 46 48  0  0  1  0            999 V2000
  -26.5712  -24.6555  -18.4134 C   0  0  0  0  0  0
  -27.5217  -23.5085  -18.7170 C   0  0  0  0  0  0
  -28.2239  -23.7161  -19.8460 O   0  0  0  0  0  0
  -29.0833  -22.7018  -20.3610 C   0  0  0  0  0  0
  -28.3254  -21.7390  -21.2642 C   0  0  0  0  0  0
  -28.1318  -21.9095  -22.5970 C   0  0  0  0  0  0
  -27.4264  -20.9002  -23.2645 N   0  0  0  0  0  0
  -26.1005  -20.5452  -22.7668 C   0  0  1  0  0  0
  -26.0501  -19.5492  -23.9352 C   0  0  2  0  0  0
  -27.1963  -20.3910  -24.5277 C   0  0  0  0  0  0
  -27.6804  -20.6138  -25.6135 O   0  0  0  0  0  0
  -24.7958  -19.5496  -24.6933 N   0  0  0  0  0  0
  -24.1552  -20.5483  -25.3275 C   0  0  0  0  0  0
  -22.8962  -20.1763  -26.1379 C   0  0  2  0  0  0
  -21.7507  -20.6823  -25.3244 C   0  0  0  0  0  0
  -21.1628  -21.9367  -25.6125 C   0  0  0  0  0  0
  -20.0628  -22.4206  -24.8784 C   0  0  0  0  0  0
  -19.5302  -21.6560  -23.8254 C   0  0  0  0  0  0
  -20.1023  -20.4102  -23.5127 C   0  0  0  0  0  0
  -21.1984  -19.9327  -24.2563 C   0  0  0  0  0  0
  -22.7687  -18.7496  -26.4535 N   0  0  0  0  0  0
  -24.5315  -21.7222  -25.2970 O   0  0  0  0  0  0
  -26.1771  -19.9991  -21.0147 S   0  0  0  0  0  0
  -27.8859  -20.4436  -20.5862 C   0  0  0  0  0  0
  -28.6410  -23.1496  -23.4328 C   0  0  0  0  0  0
  -28.7753  -23.0334  -24.6730 O   0  5  0  0  0  0
  -28.7686  -24.2284  -22.8103 O   0  0  0  0  0  0
  -27.5826  -22.5238  -17.9859 O   0  0  0  0  0  0
  -25.8888  -24.3686  -17.6139 H   0  0  0  0  0  0
  -27.1291  -25.5357  -18.0943 H   0  0  0  0  0  0
  -25.9769  -24.9019  -19.2896 H   0  0  0  0  0  0
  -29.5681  -22.1419  -19.5642 H   0  0  0  0  0  0
  -29.8927  -23.1752  -20.9152 H   0  0  0  0  0  0
  -25.4144  -21.3893  -22.8654 H   0  0  0  0  0  0
  -26.3504  -18.5472  -23.6343 H   0  0  0  0  0  0
  -24.4155  -18.6136  -24.8154 H   0  0  0  0  0  0
  -22.9515  -20.7152  -27.0854 H   0  0  0  0  0  0
  -21.5583  -22.5350  -26.4207 H   0  0  0  0  0  0
  -19.6230  -23.3739  -25.1302 H   0  0  0  0  0  0
  -18.6836  -22.0192  -23.2616 H   0  0  0  0  0  0
  -19.6975  -19.8146  -22.7073 H   0  0  0  0  0  0
  -21.6176  -18.9673  -24.0083 H   0  0  0  0  0  0
  -22.7395  -18.5932  -27.4503 H   0  0  0  0  0  0
  -23.5462  -18.1832  -26.1163 H   0  0  0  0  0  0
  -28.5536  -19.6421  -20.9051 H   0  0  0  0  0  0
  -27.9743  -20.4981  -19.5019 H   0  0  0  0  0  0
  1  2  1  0  0  0
  1 29  1  0  0  0
  1 30  1  0  0  0
  1 31  1  0  0  0
  2  3  1  0  0  0
  2 28  2  0  0  0
  3  4  1  0  0  0
  4  5  1  0  0  0
  4 32  1  0  0  0
  4 33  1  0  0  0
  5 24  1  0  0  0
  5  6  2  0  0  0
  6  7  1  0  0  0
  6 25  1  0  0  0
  7 10  1  0  0  0
  7  8  1  0  0  0
  8  9  1  0  0  0
  8 23  1  0  0  0
  8 34  1  0  0  0
  9 10  1  0  0  0
  9 12  1  0  0  0
  9 35  1  0  0  0
 10 11  2  0  0  0
 12 13  1  0  0  0
 12 36  1  0  0  0
 13 14  1  0  0  0
 13 22  2  0  0  0
 14 15  1  0  0  0
 14 21  1  0  0  0
 14 37  1  0  0  0
 15 20  1  0  0  0
 15 16  2  0  0  0
 16 17  1  0  0  0
 16 38  1  0  0  0
 17 18  2  0  0  0
 17 39  1  0  0  0
 18 19  1  0  0  0
 18 40  1  0  0  0
 19 20  2  0  0  0
 19 41  1  0  0  0
 20 42  1  0  0  0
 21 43  1  0  0  0
 21 44  1  0  0  0
 23 24  1  0  0  0
 24 45  1  0  0  0
 24 46  1  0  0  0
 25 26  1  0  0  0
 25 27  2  0  0  0
M  CHG  1  26  -1
M  END
> <s_m_entry_id>
27557

> <s_m_entry_name>
data_maestro.16

> <s_m_Source_Path>
C:\Users\olshana1\Git\GramNeg-Accumulation\Gram Negative Permeation - OmpF

> <s_m_Source_File>
data_maestro.csv

> <i_m_Source_File_Index>
16

> <s_m_job_name>
glide-dock_Nicaido_neutral

> <s_i_glide_gridfile>
3POX-grid

> <i_i_glide_lignum>
21

> <i_i_glide_rotatable_bonds>
8

> <r_i_docking_score>
-4.62883068824018

> <r_i_glide_ligand_efficiency>
-0.165315381722864

> <r_i_glide_ligand_efficiency_sa>
-0.50199486446348

> <r_i_glide_ligand_efficiency_ln>
-1.06847003122043

> <r_i_glide_gscore>
-4.74023068824018

> <r_i_glide_lipo>
0

> <r_i_glide_hbond>
-0.991604514487023

> <r_i_glide_metal>
0

> <r_i_glide_rewards>
-0.651364340629968

> <r_i_glide_evdw>
-29.3772430419922

> <r_i_glide_ecoul>
-11.5563707351685

> <r_i_glide_erotb>
0.600502745111863

> <r_i_glide_esite>
-0.495446815860177

> <r_i_glide_emodel>
-63.2403386238718

> <r_i_glide_energy>
-40.9336137771606

> <r_i_glide_einternal>
7.14443683624268

> <i_i_glide_confnum>
99

> <i_i_glide_posenum>
361

> <r_i_glide_eff_state_penalty>
0.1114

> <r_glide_res:A132_vdw>
-2.28114180548119

> <r_glide_res:A132_coul>
-33.3397967975882

> <r_glide_res:A132_hbond>
-0.152035839943644

> <r_glide_res:A132_dist>
1.81684607891206

> <r_glide_res:A132_Eint>
-35.772974443013

> <r_glide_res:A117_vdw>
-2.85211651811828

> <r_glide_res:A117_coul>
6.88886068084618

> <r_glide_res:A117_hbond>
-0.303390560395352

> <r_glide_res:A117_dist>
1.88917052601924

> <r_glide_res:A117_Eint>
3.73335360233255

> <r_glide_res:A113_vdw>
-2.30119869384141

> <r_glide_res:A113_coul>
22.3981085422517

> <r_glide_res:A113_hbond>
0

> <r_glide_res:A113_dist>
2.20154293746086

> <r_glide_res:A113_Eint>
20.0969098484102

> <r_glide_res:A82_vdw>
1.96851312481869

> <r_glide_res:A82_coul>
-50.9998725945898

> <r_glide_res:A82_hbond>
-0.324687679976271

> <r_glide_res:A82_dist>
1.76717056469604

> <r_glide_res:A82_Eint>
-49.3560471497474

> <r_glide_res:A42_vdw>
-1.92866366089954

> <r_glide_res:A42_coul>
-49.8898728854157

> <r_glide_res:A42_hbond>
-0.211490434171755

> <r_glide_res:A42_dist>
2.01568000078717

> <r_glide_res:A42_Eint>
-52.030026980487

> <r_glide_res:A16_vdw>
-0.427130775959475

> <r_glide_res:A16_coul>
-30.1778110339159

> <r_glide_res:A16_hbond>
0

> <r_glide_res:A16_dist>
3.66107509292589

> <r_glide_res:A16_Eint>
-30.6049418098753

> <s_m_source_file>
ligprep_Nicaido_neutral.maegz

> <i_m_source_file_index>
16

> <i_lp_mmshare_version>
58128

> <i_f3d_flags>
0

> <s_lp_Force_Field>
S-OPLS

> <r_lp_Energy>
48.658328

> <b_lp_Chiralities_Consistent>
1

> <s_lp_Variant>
Cephaloglycin-1

> <s_epik_input>
W0NIM11DKD1PKU9bQ0gyXUMoPUMxQyg9TylbT0hdKVtDSDJdU1tDQEBIXShOMTIpW0NASF0oQzI9TylbTkhdQyg9TylbQ0BASF0oW05IMl0pYzNbY0hdW2NIXVtjSF1bY0hdW2NIXTM=

> <s_epik_cmdline>
J2VwaWtfcHl0aG9uJywgJy1waHQnLCAnMC4wJywgJy1waCcsICc3LjQnLCAnLW50JywgJy1tYScsICc1MDAnLCAnLWltYWUnLCAnPGluZmlsZS5tYWU+JywgJy1vbWFlJywgJzxvdXRmaWxlLm1hZT4n

> <r_epik_Ionization_Penalty>
  0.1114

> <r_epik_Ionization_Penalty_Charging>
  0.0000

> <r_epik_Ionization_Penalty_Neutral>
  0.1114

> <r_epik_State_Penalty>
  0.1114

> <r_epik_Charging_Adjusted_Penalty>
0.111378695294398

> <i_epik_Tot_Q>
-1

> <i_epik_Tot_abs_Q>
1

> <s_epik_Chemistry_Notes>
This compound has an ester and may undergo hydrolysis at high or low pH. This compound contains an acetal/aminal-like group ( X-CH(R)-Y where X, Y are N, S, or O) that may be acid/base labile, releasing an aldehyde.

> <s_m_subgroup_title>
glide-dock_Nicaido_neutral_pv1

> <s_m_subgroupid>
glide-dock_Nicaido_neutral_pv1

> <b_m_subgroup_collapsed>
0

$$$$
BL-S217
                    3D
 Schrodinger Suite 2022-2.
 48 50  0  0  1  0            999 V2000
  -27.9565  -23.3028  -22.3934 O   0  0  0  0  0  0
  -28.9870  -22.8427  -21.9431 C   0  0  0  0  0  0
  -29.6503  -22.7384  -20.5590 C   0  0  2  0  0  0
  -30.5727  -21.6927  -21.2191 C   0  0  1  0  0  0
  -30.0903  -22.1960  -22.4947 N   0  0  0  0  0  0
  -30.6682  -21.8513  -23.7443 C   0  0  0  0  0  0
  -29.9182  -22.4358  -24.9898 C   0  0  0  0  0  0
  -29.9431  -21.8151  -26.0763 O   0  5  0  0  0  0
  -29.3647  -23.5436  -24.8134 O   0  0  0  0  0  0
  -31.8670  -21.2050  -23.8372 C   0  0  0  0  0  0
  -32.6751  -20.7788  -22.6203 C   0  0  0  0  0  0
  -32.3826  -21.8599  -21.2133 S   0  0  0  0  0  0
  -32.5877  -20.8486  -25.1327 C   0  0  0  0  0  0
  -33.5826  -21.8212  -25.4256 O   0  0  0  0  0  0
  -33.5692  -22.5076  -26.5793 C   0  0  0  0  0  0
  -34.6854  -23.5400  -26.6480 C   0  0  0  0  0  0
  -32.7774  -22.3607  -27.5107 O   0  0  0  0  0  0
  -28.7689  -22.1626  -19.5510 N   0  0  0  0  0  0
  -27.7500  -22.8065  -18.9684 C   0  0  0  0  0  0
  -27.0601  -22.0735  -17.8195 C   0  0  0  0  0  0
  -25.2990  -21.7453  -18.1137 S   0  0  0  0  0  0
  -25.1997  -20.4754  -19.3370 C   0  0  0  0  0  0
  -25.5879  -20.7253  -20.6693 C   0  0  0  0  0  0
  -25.3931  -19.7202  -21.6397 C   0  0  0  0  0  0
  -24.8356  -18.5301  -21.3000 N   0  3  0  0  0  0
  -24.5440  -17.5493  -22.3550 C   0  0  0  0  0  0
  -24.4840  -18.2530  -20.0189 C   0  0  0  0  0  0
  -24.6575  -19.2178  -19.0034 C   0  0  0  0  0  0
  -27.3668  -23.9248  -19.3272 O   0  0  0  0  0  0
  -30.1910  -23.6257  -20.2265 H   0  0  0  0  0  0
  -30.2652  -20.6564  -21.0576 H   0  0  0  0  0  0
  -32.4263  -19.7504  -22.3579 H   0  0  0  0  0  0
  -33.7425  -20.8103  -22.8401 H   0  0  0  0  0  0
  -33.0861  -19.8895  -24.9898 H   0  0  0  0  0  0
  -31.9087  -20.6800  -25.9627 H   0  0  0  0  0  0
  -34.7486  -23.9685  -27.6485 H   0  0  0  0  0  0
  -34.4982  -24.3443  -25.9366 H   0  0  0  0  0  0
  -35.6434  -23.0788  -26.4078 H   0  0  0  0  0  0
  -29.0774  -21.2796  -19.1580 H   0  0  0  0  0  0
  -27.1520  -22.6862  -16.9215 H   0  0  0  0  0  0
  -27.5620  -21.1268  -17.6134 H   0  0  0  0  0  0
  -26.0031  -21.6812  -20.9548 H   0  0  0  0  0  0
  -25.6429  -19.8583  -22.6822 H   0  0  0  0  0  0
  -25.1689  -17.7646  -23.2151 H   0  0  0  0  0  0
  -24.7689  -16.5421  -22.0129 H   0  0  0  0  0  0
  -23.4912  -17.6339  -22.6252 H   0  0  0  0  0  0
  -24.0482  -17.2813  -19.8375 H   0  0  0  0  0  0
  -24.3589  -19.0024  -17.9869 H   0  0  0  0  0  0
  1  2  2  0  0  0
  2  5  1  0  0  0
  2  3  1  0  0  0
  3  4  1  0  0  0
  3 18  1  0  0  0
  3 30  1  0  0  0
  4 12  1  0  0  0
  4  5  1  0  0  0
  4 31  1  0  0  0
  5  6  1  0  0  0
  6  7  1  0  0  0
  6 10  2  0  0  0
  7  8  1  0  0  0
  7  9  2  0  0  0
 10 11  1  0  0  0
 10 13  1  0  0  0
 11 12  1  0  0  0
 11 32  1  0  0  0
 11 33  1  0  0  0
 13 14  1  0  0  0
 13 34  1  0  0  0
 13 35  1  0  0  0
 14 15  1  0  0  0
 15 16  1  0  0  0
 15 17  2  0  0  0
 16 36  1  0  0  0
 16 37  1  0  0  0
 16 38  1  0  0  0
 18 19  1  0  0  0
 18 39  1  0  0  0
 19 20  1  0  0  0
 19 29  2  0  0  0
 20 21  1  0  0  0
 20 40  1  0  0  0
 20 41  1  0  0  0
 21 22  1  0  0  0
 22 28  1  0  0  0
 22 23  2  0  0  0
 23 24  1  0  0  0
 23 42  1  0  0  0
 24 25  2  0  0  0
 24 43  1  0  0  0
 25 26  1  0  0  0
 25 27  1  0  0  0
 26 44  1  0  0  0
 26 45  1  0  0  0
 26 46  1  0  0  0
 27 28  2  0  0  0
 27 47  1  0  0  0
 28 48  1  0  0  0
M  CHG  2   8  -1  25   1
M  END
> <s_m_entry_id>
27558

> <s_m_entry_name>
data_maestro.17

> <s_m_Source_Path>
C:\Users\olshana1\Git\GramNeg-Accumulation\Gram Negative Permeation - OmpF

> <s_m_Source_File>
data_maestro.csv

> <i_m_Source_File_Index>
17

> <s_m_job_name>
glide-dock_Nicaido_neutral

> <s_i_glide_gridfile>
3POX-grid

> <i_i_glide_lignum>
22

> <i_i_glide_rotatable_bonds>
9

> <r_i_docking_score>
-4.62827214331136

> <r_i_glide_ligand_efficiency>
-0.159595591148668

> <r_i_glide_ligand_efficiency_sa>
-0.490328219440971

> <r_i_glide_ligand_efficiency_ln>
-1.05975695796309

> <r_i_glide_gscore>
-4.62827214331136

> <r_i_glide_lipo>
-0.047068552260313

> <r_i_glide_hbond>
-0.743945754497351

> <r_i_glide_metal>
0

> <r_i_glide_rewards>
-0.424720051544928

> <r_i_glide_evdw>
-24.9990711212158

> <r_i_glide_ecoul>
-15.8319091796875

> <r_i_glide_erotb>
0.729326637690335

> <r_i_glide_esite>
-0.51712448968519

> <r_i_glide_emodel>
-67.9880417834395

> <r_i_glide_energy>
-40.8309803009033

> <r_i_glide_einternal>
4.75808906555176

> <i_i_glide_confnum>
139

> <i_i_glide_posenum>
261

> <r_i_glide_eff_state_penalty>
0

> <r_glide_res:A132_vdw>
-2.10857136829851

> <r_glide_res:A132_coul>
-14.3230514784508

> <r_glide_res:A132_hbond>
-0.0824114950166401

> <r_glide_res:A132_dist>
2.2939712624584

> <r_glide_res:A132_Eint>
-16.514034341766

> <r_glide_res:A117_vdw>
-2.90135627429936

> <r_glide_res:A117_coul>
-15.4535983173772

> <r_glide_res:A117_hbond>
0

> <r_glide_res:A117_dist>
2.40620616526097

> <r_glide_res:A117_Eint>
-18.3549545916765

> <r_glide_res:A113_vdw>
-2.0531879429281

> <r_glide_res:A113_coul>
-12.4049079337969

> <r_glide_res:A113_hbond>
-0.0590434387351086

> <r_glide_res:A113_dist>
2.34280172042793

> <r_glide_res:A113_Eint>
-14.5171393154602

> <r_glide_res:A82_vdw>
-1.7440318983786

> <r_glide_res:A82_coul>
-24.9344059062382

> <r_glide_res:A82_hbond>
-0.0218137382170506

> <r_glide_res:A82_dist>
2.4477296950362

> <r_glide_res:A82_Eint>
-26.7002515428339

> <r_glide_res:A42_vdw>
1.34290500258871

> <r_glide_res:A42_coul>
-32.1340413434

> <r_glide_res:A42_hbond>
-0.329814316682844

> <r_glide_res:A42_dist>
1.77855141637702

> <r_glide_res:A42_Eint>
-31.1209506574942

> <r_glide_res:A16_vdw>
-0.780955427337237

> <r_glide_res:A16_coul>
-31.544825904244

> <r_glide_res:A16_hbond>
-0.250862765845708

> <r_glide_res:A16_dist>
2.08989109292046

> <r_glide_res:A16_Eint>
-32.5766440974269

> <s_m_source_file>
ligprep_Nicaido_neutral.maegz

> <i_m_source_file_index>
17

> <i_lp_mmshare_version>
58128

> <i_f3d_flags>
0

> <s_lp_Force_Field>
S-OPLS

> <r_lp_Energy>
45.233938

> <b_lp_Chiralities_Consistent>
1

> <s_lp_Variant>
BL-S217-1

> <s_epik_input>
W0NIM11DKD1PKU9bQ0gyXUMoW0NIMl1TMSk9QyhDKD1PKVtPSF0pTihbQ0BASF0xMilDKD1PKVtDQEhdMltOSF1DKD1PKVtDSDJdU2MzW2NIXVtjSF1bbitdKFtDSDNdKVtjSF1bY0hdMw==

> <s_epik_cmdline>
J2VwaWtfcHl0aG9uJywgJy1waHQnLCAnMC4wJywgJy1waCcsICc3LjQnLCAnLW50JywgJy1tYScsICc1MDAnLCAnLWltYWUnLCAnPGluZmlsZS5tYWU+JywgJy1vbWFlJywgJzxvdXRmaWxlLm1hZT4n

> <r_lp_tautomer_probability>
1

> <r_epik_Ionization_Penalty>
  0.0000

> <r_epik_Ionization_Penalty_Charging>
  0.0000

> <r_epik_Ionization_Penalty_Neutral>
  0.0000

> <r_epik_State_Penalty>
  0.0000

> <r_epik_Charging_Adjusted_Penalty>
6.14912740637116e-06

> <i_epik_Tot_Q>
0

> <i_epik_Tot_abs_Q>
2

> <s_epik_Chemistry_Notes>
This compound has an ester and may undergo hydrolysis at high or low pH. This compound contains an acetal/aminal-like group ( X-CH(R)-Y where X, Y are N, S, or O) that may be acid/base labile, releasing an aldehyde.

> <s_m_subgroup_title>
glide-dock_Nicaido_neutral_pv1

> <s_m_subgroupid>
glide-dock_Nicaido_neutral_pv1

> <b_m_subgroup_collapsed>
0

$$$$
Ceftizoxime
                    3D
 Schrodinger Suite 2022-2.
 37 39  0  0  1  0            999 V2000
  -31.8095  -23.5495  -26.9224 C   0  0  0  0  0  0
  -30.7690  -22.7305  -26.4131 O   0  0  0  0  0  0
  -31.3695  -21.7307  -25.6379 N   0  0  0  0  0  0
  -30.6080  -21.1099  -24.8138 C   0  0  0  0  0  0
  -31.2690  -20.0916  -23.9340 C   0  0  0  0  0  0
  -32.3803  -19.4040  -24.3773 C   0  0  0  0  0  0
  -33.0463  -18.3496  -23.1627 S   0  0  0  0  0  0
  -31.7602  -18.8529  -22.0873 C   0  0  0  0  0  0
  -31.6403  -18.3496  -20.8134 N   0  0  0  0  0  0
  -30.9538  -19.7745  -22.6046 N   0  0  0  0  0  0
  -29.0823  -21.3085  -24.6626 C   0  0  0  0  0  0
  -28.5351  -20.7621  -23.5640 N   0  0  0  0  0  0
  -27.1713  -20.9879  -23.0903 C   0  0  1  0  0  0
  -26.9573  -20.4744  -21.6505 C   0  0  1  0  0  0
  -26.4601  -21.8043  -21.3348 N   0  0  0  0  0  0
  -26.9718  -22.3974  -22.4784 C   0  0  0  0  0  0
  -27.1689  -23.5489  -22.8134 O   0  0  0  0  0  0
  -25.8958  -22.1170  -20.0802 C   0  0  0  0  0  0
  -25.8198  -23.6172  -19.6544 C   0  0  0  0  0  0
  -24.7989  -23.9842  -19.0317 O   0  5  0  0  0  0
  -26.7689  -24.3496  -20.0134 O   0  0  0  0  0  0
  -25.4763  -21.1605  -19.2232 C   0  0  0  0  0  0
  -25.5168  -19.6638  -19.4761 C   0  0  0  0  0  0
  -25.6569  -19.2643  -21.2362 S   0  0  0  0  0  0
  -28.4095  -21.9496  -25.4747 O   0  0  0  0  0  0
  -31.3933  -24.3397  -27.5462 H   0  0  0  0  0  0
  -32.3671  -24.0261  -26.1138 H   0  0  0  0  0  0
  -32.5095  -22.9772  -27.5334 H   0  0  0  0  0  0
  -32.8638  -19.4638  -25.3404 H   0  0  0  0  0  0
  -31.1689  -18.9271  -20.1084 H   0  0  0  0  0  0
  -32.3989  -17.7954  -20.4503 H   0  0  0  0  0  0
  -29.1516  -20.2395  -22.9481 H   0  0  0  0  0  0
  -26.3924  -20.6592  -23.7802 H   0  0  0  0  0  0
  -27.8823  -20.2642  -21.1063 H   0  0  0  0  0  0
  -25.0991  -21.4523  -18.2530 H   0  0  0  0  0  0
  -26.3674  -19.2425  -18.9420 H   0  0  0  0  0  0
  -24.6152  -19.1981  -19.0788 H   0  0  0  0  0  0
  1  2  1  0  0  0
  1 26  1  0  0  0
  1 27  1  0  0  0
  1 28  1  0  0  0
  2  3  1  0  0  0
  3  4  2  3  0  0
  4  5  1  0  0  0
  4 11  1  0  0  0
  5 10  1  0  0  0
  5  6  2  0  0  0
  6  7  1  0  0  0
  6 29  1  0  0  0
  7  8  1  0  0  0
  8  9  1  0  0  0
  8 10  2  0  0  0
  9 30  1  0  0  0
  9 31  1  0  0  0
 11 12  1  0  0  0
 11 25  2  0  0  0
 12 13  1  0  0  0
 12 32  1  0  0  0
 13 16  1  0  0  0
 13 14  1  0  0  0
 13 33  1  0  0  0
 14 24  1  0  0  0
 14 15  1  0  0  0
 14 34  1  0  0  0
 15 16  1  0  0  0
 15 18  1  0  0  0
 16 17  2  0  0  0
 18 19  1  0  0  0
 18 22  2  0  0  0
 19 20  1  0  0  0
 19 21  2  0  0  0
 22 23  1  0  0  0
 22 35  1  0  0  0
 23 24  1  0  0  0
 23 36  1  0  0  0
 23 37  1  0  0  0
M  CHG  1  20  -1
M  END
> <s_m_entry_id>
27559

> <s_m_entry_name>
data_maestro.5

> <s_m_Source_Path>
C:\Users\olshana1\Git\GramNeg-Accumulation\Gram Negative Permeation - OmpF

> <s_m_Source_File>
data_maestro.csv

> <i_m_Source_File_Index>
5

> <s_m_job_name>
glide-dock_Nicaido_neutral

> <s_i_glide_gridfile>
3POX-grid

> <i_i_glide_lignum>
6

> <i_i_glide_rotatable_bonds>
6

> <r_i_docking_score>
-4.62714658299812

> <r_i_glide_ligand_efficiency>
-0.185085863319925

> <r_i_glide_ligand_efficiency_sa>
-0.541194346859223

> <r_i_glide_ligand_efficiency_ln>
-1.09677240456412

> <r_i_glide_gscore>
-4.62714658299812

> <r_i_glide_lipo>
0

> <r_i_glide_hbond>
-0.894147497450219

> <r_i_glide_metal>
0

> <r_i_glide_rewards>
-0.773881244305301

> <r_i_glide_evdw>
-21.5136432647705

> <r_i_glide_ecoul>
-12.4957838058472

> <r_i_glide_erotb>
0.664075194683877

> <r_i_glide_esite>
-0.67314330181088

> <r_i_glide_emodel>
-54.8640994325996

> <r_i_glide_energy>
-34.0094270706177

> <r_i_glide_einternal>
2.72792959213257

> <i_i_glide_confnum>
5

> <i_i_glide_posenum>
222

> <r_i_glide_eff_state_penalty>
0

> <r_glide_res:A132_vdw>
1.0059656880419

> <r_glide_res:A132_coul>
-52.2448429523998

> <r_glide_res:A132_hbond>
-0.322223171069407

> <r_glide_res:A132_dist>
1.83192979451454

> <r_glide_res:A132_Eint>
-51.5611004354273

> <r_glide_res:A117_vdw>
-2.71867444491456

> <r_glide_res:A117_coul>
19.1064300033755

> <r_glide_res:A117_hbond>
0

> <r_glide_res:A117_dist>
3.26534612131523

> <r_glide_res:A117_Eint>
16.387755558461

> <r_glide_res:A113_vdw>
-0.911087380514309

> <r_glide_res:A113_coul>
17.9801598534691

> <r_glide_res:A113_hbond>
-0.16

> <r_glide_res:A113_dist>
1.75825663394092

> <r_glide_res:A113_Eint>
16.9090724729548

> <r_glide_res:A82_vdw>
-1.09986608443445

> <r_glide_res:A82_coul>
-37.7476725380334

> <r_glide_res:A82_hbond>
-0.16

> <r_glide_res:A82_dist>
1.90420877448962

> <r_glide_res:A82_Eint>
-39.0075386224678

> <r_glide_res:A42_vdw>
-0.640224695808322

> <r_glide_res:A42_coul>
-35.3014318042944

> <r_glide_res:A42_hbond>
-0.251924326380812

> <r_glide_res:A42_dist>
2.00555004495104

> <r_glide_res:A42_Eint>
-36.1935808264835

> <r_glide_res:A16_vdw>
-1.87608271955828

> <r_glide_res:A16_coul>
-21.5902302695623

> <r_glide_res:A16_hbond>
0

> <r_glide_res:A16_dist>
2.36699736194595

> <r_glide_res:A16_Eint>
-23.4663129891206

> <s_m_source_file>
ligprep_Nicaido_neutral.maegz

> <i_m_source_file_index>
5

> <i_lp_mmshare_version>
58128

> <i_f3d_flags>
0

> <s_lp_Force_Field>
S-OPLS

> <r_lp_Energy>
52.500132

> <b_lp_Chiralities_Consistent>
1

> <s_lp_Variant>
Ceftizoxime-2

> <s_epik_input>
W05IMl1jKG4xKXNbY0hdYzEvQyg9TlxPW0NIM10pQyg9TylbTkhdW0NAQEhdMkMoPU8pTihbQ0BIXTIzKUMoQyg9TylbT0hdKT1bQ0hdW0NIMl1TMw==

> <s_epik_cmdline>
J2VwaWtfcHl0aG9uJywgJy1waHQnLCAnMC4wJywgJy1waCcsICc3LjQnLCAnLW50JywgJy1tYScsICc1MDAnLCAnLWltYWUnLCAnPGluZmlsZS5tYWU+JywgJy1vbWFlJywgJzxvdXRmaWxlLm1hZT4n

> <r_lp_tautomer_probability>
1

> <r_epik_Ionization_Penalty>
  0.0005

> <r_epik_Ionization_Penalty_Charging>
  0.0000

> <r_epik_Ionization_Penalty_Neutral>
  0.0005

> <r_epik_State_Penalty>
  0.0000

> <r_epik_Charging_Adjusted_Penalty>
4.86746471452517e-05

> <i_epik_Tot_Q>
-1

> <i_epik_Tot_abs_Q>
1

> <s_epik_Chemistry_Notes>
This compound has an imine and may undergo hydrolysis. This compound contains an acetal/aminal-like group ( X-CH(R)-Y where X, Y are N, S, or O) that may be acid/base labile, releasing an aldehyde.

> <s_m_subgroup_title>
glide-dock_Nicaido_neutral_pv1

> <s_m_subgroupid>
glide-dock_Nicaido_neutral_pv1

> <b_m_subgroup_collapsed>
0

$$$$
Moxalactam
                    3D
 Schrodinger Suite 2022-2.
 54 57  0  0  1  0            999 V2000
  -32.7693  -18.9393  -21.3112 C   0  0  0  0  0  0
  -32.4289  -19.7531  -22.4595 N   0  0  0  0  0  0
  -31.4573  -19.6405  -23.3731 C   0  0  0  0  0  0
  -30.2797  -18.3321  -23.3837 S   0  0  0  0  0  0
  -28.7864  -19.2739  -23.8106 C   0  0  0  0  0  0
  -28.3766  -20.2588  -22.7175 C   0  0  0  0  0  0
  -28.2860  -21.6027  -22.8655 C   0  0  0  0  0  0
  -28.4941  -22.4223  -24.1876 C   0  0  0  0  0  0
  -29.0354  -23.5482  -24.0817 O   0  5  0  0  0  0
  -28.0038  -21.9496  -25.2357 O   0  0  0  0  0  0
  -27.9458  -22.3633  -21.7466 N   0  0  0  0  0  0
  -27.9005  -21.7731  -20.4171 C   0  0  2  0  0  0
  -27.2268  -20.5302  -20.5642 O   0  0  0  0  0  0
  -27.9949  -19.6296  -21.3717 C   0  0  0  0  0  0
  -27.0792  -23.0156  -19.9896 C   0  0  1  0  0  0
  -26.9888  -23.3169  -21.5048 C   0  0  0  0  0  0
  -26.2841  -23.9501  -22.2610 O   0  0  0  0  0  0
  -25.7821  -22.7151  -19.3765 N   0  0  0  0  0  0
  -24.7598  -23.5833  -19.2244 C   0  0  0  0  0  0
  -23.4160  -23.0699  -18.6456 C   0  0  2  0  0  0
  -23.0364  -23.8964  -17.3804 C   0  0  0  0  0  0
  -22.7694  -23.2780  -16.3277 O   0  5  0  0  0  0
  -22.9227  -25.1454  -17.4838 O   0  0  0  0  0  0
  -23.4008  -21.5437  -18.4232 C   0  0  0  0  0  0
  -22.5307  -20.7464  -19.2000 C   0  0  0  0  0  0
  -22.5658  -19.3407  -19.1079 C   0  0  0  0  0  0
  -23.4860  -18.7137  -18.2468 C   0  0  0  0  0  0
  -23.5491  -17.3531  -18.1725 O   0  0  0  0  0  0
  -24.3505  -19.4961  -17.4618 C   0  0  0  0  0  0
  -24.2927  -20.9021  -17.5273 C   0  0  0  0  0  0
  -24.8468  -24.7492  -19.6126 O   0  0  0  0  0  0
  -27.8397  -24.0187  -19.3145 O   0  0  0  0  0  0
  -28.1623  -23.6974  -17.9656 C   0  0  0  0  0  0
  -31.5359  -20.6246  -24.2625 N   0  0  0  0  0  0
  -32.6132  -21.3749  -23.8321 N   0  0  0  0  0  0
  -33.1494  -20.8609  -22.7629 N   0  0  0  0  0  0
  -32.3531  -17.9368  -21.4111 H   0  0  0  0  0  0
  -32.3690  -19.4048  -20.4132 H   0  0  0  0  0  0
  -33.8523  -18.8613  -21.2156 H   0  0  0  0  0  0
  -28.9712  -19.7586  -24.7652 H   0  0  0  0  0  0
  -27.9674  -18.5782  -23.9939 H   0  0  0  0  0  0
  -28.8901  -21.6857  -19.9607 H   0  0  0  0  0  0
  -27.3801  -18.7496  -21.5414 H   0  0  0  0  0  0
  -28.8912  -19.3074  -20.8393 H   0  0  0  0  0  0
  -25.6338  -21.7550  -19.0927 H   0  0  0  0  0  0
  -22.6565  -23.3060  -19.3910 H   0  0  0  0  0  0
  -21.8420  -21.2079  -19.8914 H   0  0  0  0  0  0
  -21.8999  -18.7486  -19.7175 H   0  0  0  0  0  0
  -22.8611  -16.9084  -18.6425 H   0  0  0  0  0  0
  -25.0667  -19.0134  -16.8134 H   0  0  0  0  0  0
  -24.9663  -21.4859  -16.9161 H   0  0  0  0  0  0
  -28.7346  -24.5124  -17.5234 H   0  0  0  0  0  0
  -28.7696  -22.7941  -17.9017 H   0  0  0  0  0  0
  -27.2713  -23.5497  -17.3549 H   0  0  0  0  0  0
  1  2  1  0  0  0
  1 37  1  0  0  0
  1 38  1  0  0  0
  1 39  1  0  0  0
  2 36  1  0  0  0
  2  3  1  0  0  0
  3  4  1  0  0  0
  3 34  2  0  0  0
  4  5  1  0  0  0
  5  6  1  0  0  0
  5 40  1  0  0  0
  5 41  1  0  0  0
  6 14  1  0  0  0
  6  7  2  0  0  0
  7  8  1  0  0  0
  7 11  1  0  0  0
  8  9  1  0  0  0
  8 10  2  0  0  0
 11 16  1  0  0  0
 11 12  1  0  0  0
 12 13  1  0  0  0
 12 15  1  0  0  0
 12 42  1  0  0  0
 13 14  1  0  0  0
 14 43  1  0  0  0
 14 44  1  0  0  0
 15 16  1  0  0  0
 15 18  1  0  0  0
 15 32  1  0  0  0
 16 17  2  0  0  0
 18 19  1  0  0  0
 18 45  1  0  0  0
 19 20  1  0  0  0
 19 31  2  0  0  0
 20 21  1  0  0  0
 20 24  1  0  0  0
 20 46  1  0  0  0
 21 22  1  0  0  0
 21 23  2  0  0  0
 24 30  1  0  0  0
 24 25  2  0  0  0
 25 26  1  0  0  0
 25 47  1  0  0  0
 26 27  2  0  0  0
 26 48  1  0  0  0
 27 28  1  0  0  0
 27 29  1  0  0  0
 28 49  1  0  0  0
 29 30  2  0  0  0
 29 50  1  0  0  0
 30 51  1  0  0  0
 32 33  1  0  0  0
 33 52  1  0  0  0
 33 53  1  0  0  0
 33 54  1  0  0  0
 34 35  1  0  0  0
 35 36  2  0  0  0
M  CHG  2   9  -1  22  -1
M  END
> <s_m_entry_id>
27560

> <s_m_entry_name>
data_maestro.20

> <s_m_Source_Path>
C:\Users\olshana1\Git\GramNeg-Accumulation\Gram Negative Permeation - OmpF

> <s_m_Source_File>
data_maestro.csv

> <i_m_Source_File_Index>
20

> <s_m_job_name>
glide-dock_Nicaido_neutral

> <s_i_glide_gridfile>
3POX-grid

> <i_i_glide_lignum>
25

> <i_i_glide_rotatable_bonds>
11

> <r_i_docking_score>
-4.61757499040459

> <r_i_glide_ligand_efficiency>
-0.128265971955683

> <r_i_glide_ligand_efficiency_sa>
-0.423524907400521

> <r_i_glide_ligand_efficiency_ln>
-1.00743011044696

> <r_i_glide_gscore>
-4.61757499040459

> <r_i_glide_lipo>
0

> <r_i_glide_hbond>
-0.912450279574438

> <r_i_glide_metal>
0

> <r_i_glide_rewards>
5.13068608206296e-10

> <r_i_glide_evdw>
-32.7229919433594

> <r_i_glide_ecoul>
-12.298773765564

> <r_i_glide_erotb>
0.534860792752126

> <r_i_glide_esite>
-0.75901984209278

> <r_i_glide_emodel>
-75.8383031324919

> <r_i_glide_energy>
-45.0217657089233

> <r_i_glide_einternal>
3.20063304901123

> <i_i_glide_confnum>
56

> <i_i_glide_posenum>
291

> <r_i_glide_eff_state_penalty>
0

> <r_glide_res:A132_vdw>
-0.71451357147249

> <r_glide_res:A132_coul>
-61.7725564062928

> <r_glide_res:A132_hbond>
-0.315034569509767

> <r_glide_res:A132_dist>
1.96348581381305

> <r_glide_res:A132_Eint>
-62.8021045472751

> <r_glide_res:A117_vdw>
-3.04822567181402

> <r_glide_res:A117_coul>
37.4570861509101

> <r_glide_res:A117_hbond>
0

> <r_glide_res:A117_dist>
2.24767376413881

> <r_glide_res:A117_Eint>
34.4088604790961

> <r_glide_res:A113_vdw>
-4.50554124378631

> <r_glide_res:A113_coul>
31.8354638550391

> <r_glide_res:A113_hbond>
0

> <r_glide_res:A113_dist>
2.34636221719856

> <r_glide_res:A113_Eint>
27.3299226112528

> <r_glide_res:A82_vdw>
-1.21572945710671

> <r_glide_res:A82_coul>
-64.9531712134847

> <r_glide_res:A82_hbond>
-0.204974688159376

> <r_glide_res:A82_dist>
2.11153603100753

> <r_glide_res:A82_Eint>
-66.3738753587508

> <r_glide_res:A42_vdw>
-0.331788082599576

> <r_glide_res:A42_coul>
-66.7861723735791

> <r_glide_res:A42_hbond>
-0.232441021905295

> <r_glide_res:A42_dist>
1.81640696180902

> <r_glide_res:A42_Eint>
-67.350401478084

> <r_glide_res:A16_vdw>
-0.558389646841283

> <r_glide_res:A16_coul>
-44.3851082334849

> <r_glide_res:A16_hbond>
0

> <r_glide_res:A16_dist>
3.7653236234464

> <r_glide_res:A16_Eint>
-44.9434978803262

> <s_m_source_file>
ligprep_Nicaido_neutral.maegz

> <i_m_source_file_index>
20

> <i_lp_mmshare_version>
58128

> <i_f3d_flags>
0

> <s_lp_Force_Field>
S-OPLS

> <r_lp_Energy>
52.146636

> <b_lp_Chiralities_Consistent>
1

> <s_lp_Variant>
Moxalactam-1

> <s_epik_input>
bjFubmMobjFbQ0gzXSlTW0NIMl1DKD1DMkMoPU8pW09IXSlbQ0gyXU9bQ0BASF0oTjIzKVtDQF0oQzM9TykoT1tDSDNdKVtOSF1DKD1PKVtDQEhdKEMoPU8pW09IXSljNFtjSF1bY0hdYyhbT0hdKVtjSF1bY0hdNA==

> <s_epik_cmdline>
J2VwaWtfcHl0aG9uJywgJy1waHQnLCAnMC4wJywgJy1waCcsICc3LjQnLCAnLW50JywgJy1tYScsICc1MDAnLCAnLWltYWUnLCAnPGluZmlsZS5tYWU+JywgJy1vbWFlJywgJzxvdXRmaWxlLm1hZT4n

> <r_lp_tautomer_probability>
1

> <r_epik_Ionization_Penalty>
  0.0029

> <r_epik_Ionization_Penalty_Charging>
  0.0001

> <r_epik_Ionization_Penalty_Neutral>
  0.0029

> <r_epik_State_Penalty>
  0.0000

> <r_epik_Charging_Adjusted_Penalty>
5.78268703870383e-05

> <i_epik_Tot_Q>
-2

> <i_epik_Tot_abs_Q>
2

> <s_epik_Chemistry_Notes>
This compound contains an acetal/aminal-like group ( X-CH(R)-Y where X, Y are N, S, or O) that may be acid/base labile, releasing an aldehyde.

> <s_m_subgroup_title>
glide-dock_Nicaido_neutral_pv1

> <s_m_subgroupid>
glide-dock_Nicaido_neutral_pv1

> <b_m_subgroup_collapsed>
0

$$$$
Aztreonam
                    3D
 Schrodinger Suite 2022-2.
 43 44  0  0  1  0            999 V2000
  -31.0062  -23.3475  -22.7840 C   0  0  0  0  0  0
  -31.1108  -22.0958  -23.6652 C   0  0  1  0  0  0
  -29.9107  -21.1321  -23.8521 C   0  0  2  0  0  0
  -30.0389  -21.4491  -25.3646 C   0  0  0  0  0  0
  -30.9824  -22.4041  -25.0819 N   0  0  0  0  0  0
  -31.9827  -23.4314  -25.9232 S   0  0  0  0  0  0
  -31.1895  -24.6670  -26.0134 O   0  0  0  0  0  0
  -32.1765  -22.7508  -27.2133 O   0  5  0  0  0  0
  -33.2018  -23.5421  -25.1101 O   0  0  0  0  0  0
  -29.5690  -21.0611  -26.4133 O   0  0  0  0  0  0
  -28.7164  -21.6253  -23.1497 N   0  0  0  0  0  0
  -27.5021  -21.9827  -23.6216 C   0  0  0  0  0  0
  -26.5378  -22.4754  -22.5294 C   0  0  0  0  0  0
  -26.8696  -22.0454  -21.1515 C   0  0  0  0  0  0
  -27.0452  -20.7139  -20.8543 C   0  0  0  0  0  0
  -27.4955  -20.4805  -19.2027 S   0  0  0  0  0  0
  -27.3143  -22.2032  -18.9356 C   0  0  0  0  0  0
  -27.4662  -22.7498  -17.6743 N   0  0  0  0  0  0
  -26.9981  -22.8896  -20.0368 N   0  0  0  0  0  0
  -25.5093  -23.2143  -22.6880 N   0  0  0  0  0  0
  -25.2324  -23.5498  -24.0257 O   0  0  0  0  0  0
  -23.8659  -23.9519  -24.1893 C   0  0  0  0  0  0
  -23.6372  -25.3690  -23.6121 C   0  0  0  0  0  0
  -24.3689  -26.2921  -24.0423 O   0  5  0  0  0  0
  -22.6900  -25.5496  -22.8135 O   0  0  0  0  0  0
  -23.6686  -24.0263  -25.7153 C   0  0  0  0  0  0
  -22.8743  -22.9128  -23.6032 C   0  0  0  0  0  0
  -27.1925  -21.9496  -24.8133 O   0  0  0  0  0  0
  -30.9424  -23.0761  -21.7300 H   0  0  0  0  0  0
  -31.8801  -23.9893  -22.8933 H   0  0  0  0  0  0
  -30.1296  -23.9477  -23.0248 H   0  0  0  0  0  0
  -32.0365  -21.5410  -23.4967 H   0  0  0  0  0  0
  -30.1664  -20.1067  -23.5835 H   0  0  0  0  0  0
  -28.8305  -21.6749  -22.1465 H   0  0  0  0  0  0
  -26.9783  -19.8541  -21.5080 H   0  0  0  0  0  0
  -27.1695  -23.6922  -17.4638 H   0  0  0  0  0  0
  -27.5693  -22.1354  -16.8748 H   0  0  0  0  0  0
  -22.6510  -24.3194  -25.9772 H   0  0  0  0  0  0
  -24.3444  -24.7491  -26.1739 H   0  0  0  0  0  0
  -23.8556  -23.0568  -26.1778 H   0  0  0  0  0  0
  -21.8459  -23.1463  -23.8800 H   0  0  0  0  0  0
  -23.0935  -21.9125  -23.9781 H   0  0  0  0  0  0
  -22.9104  -22.8702  -22.5140 H   0  0  0  0  0  0
  1  2  1  0  0  0
  1 29  1  0  0  0
  1 30  1  0  0  0
  1 31  1  0  0  0
  2  5  1  0  0  0
  2  3  1  0  0  0
  2 32  1  0  0  0
  3  4  1  0  0  0
  3 11  1  0  0  0
  3 33  1  0  0  0
  4  5  1  0  0  0
  4 10  2  0  0  0
  5  6  1  0  0  0
  6  7  2  0  0  0
  6  8  1  0  0  0
  6  9  2  0  0  0
 11 12  1  0  0  0
 11 34  1  0  0  0
 12 13  1  0  0  0
 12 28  2  0  0  0
 13 14  1  0  0  0
 13 20  2  3  0  0
 14 19  1  0  0  0
 14 15  2  0  0  0
 15 16  1  0  0  0
 15 35  1  0  0  0
 16 17  1  0  0  0
 17 18  1  0  0  0
 17 19  2  0  0  0
 18 36  1  0  0  0
 18 37  1  0  0  0
 20 21  1  0  0  0
 21 22  1  0  0  0
 22 23  1  0  0  0
 22 26  1  0  0  0
 22 27  1  0  0  0
 23 24  1  0  0  0
 23 25  2  0  0  0
 26 38  1  0  0  0
 26 39  1  0  0  0
 26 40  1  0  0  0
 27 41  1  0  0  0
 27 42  1  0  0  0
 27 43  1  0  0  0
M  CHG  2   8  -1  24  -1
M  END
> <s_m_entry_id>
27561

> <s_m_entry_name>
data_maestro.21

> <s_m_Source_Path>
C:\Users\olshana1\Git\GramNeg-Accumulation\Gram Negative Permeation - OmpF

> <s_m_Source_File>
data_maestro.csv

> <i_m_Source_File_Index>
21

> <s_m_job_name>
glide-dock_Nicaido_neutral

> <s_i_glide_gridfile>
3POX-grid

> <i_i_glide_lignum>
27

> <i_i_glide_rotatable_bonds>
8

> <r_i_docking_score>
-4.61655291188573

> <r_i_glide_ligand_efficiency>
-0.164876889710205

> <r_i_glide_ligand_efficiency_sa>
-0.500663344455063

> <r_i_glide_ligand_efficiency_ln>
-1.06563595994664

> <r_i_glide_gscore>
-4.61655291188573

> <r_i_glide_lipo>
0

> <r_i_glide_hbond>
-0.995687184378095

> <r_i_glide_metal>
0

> <r_i_glide_rewards>
-0.410302079054177

> <r_i_glide_evdw>
-21.0073318481445

> <r_i_glide_ecoul>
-13.389552116394

> <r_i_glide_erotb>
0.635830109179744

> <r_i_glide_esite>
-0.787594347766873

> <r_i_glide_emodel>
-57.5988414312674

> <r_i_glide_energy>
-34.3968839645386

> <r_i_glide_einternal>
9.84337615966797

> <i_i_glide_confnum>
57

> <i_i_glide_posenum>
150

> <r_i_glide_eff_state_penalty>
0

> <r_glide_res:A132_vdw>
-2.59212383224627

> <r_glide_res:A132_coul>
-57.699639265514

> <r_glide_res:A132_hbond>
0

> <r_glide_res:A132_dist>
3.00131096634033

> <r_glide_res:A132_Eint>
-60.2917630977602

> <r_glide_res:A117_vdw>
-1.33008892220917

> <r_glide_res:A117_coul>
35.3399828266971

> <r_glide_res:A117_hbond>
0

> <r_glide_res:A117_dist>
3.2903952468673

> <r_glide_res:A117_Eint>
34.0098939044879

> <r_glide_res:A113_vdw>
-2.44930497590343

> <r_glide_res:A113_coul>
29.9229822504747

> <r_glide_res:A113_hbond>
0

> <r_glide_res:A113_dist>
3.48742954609512

> <r_glide_res:A113_Eint>
27.4736772745713

> <r_glide_res:A82_vdw>
-2.67957972188092

> <r_glide_res:A82_coul>
-74.7297511427906

> <r_glide_res:A82_hbond>
-0.146280156956651

> <r_glide_res:A82_dist>
1.91082137077254

> <r_glide_res:A82_Eint>
-77.5556110216281

> <r_glide_res:A42_vdw>
-1.03514095358017

> <r_glide_res:A42_coul>
-74.6792887281129

> <r_glide_res:A42_hbond>
-0.16

> <r_glide_res:A42_dist>
1.74126873147048

> <r_glide_res:A42_Eint>
-75.874429681693

> <r_glide_res:A16_vdw>
-0.30324641188692

> <r_glide_res:A16_coul>
-67.8476595432349

> <r_glide_res:A16_hbond>
-0.172346547148413

> <r_glide_res:A16_dist>
1.85608274210447

> <r_glide_res:A16_Eint>
-68.3232525022702

> <s_m_source_file>
ligprep_Nicaido_neutral.maegz

> <i_m_source_file_index>
21

> <i_lp_mmshare_version>
58128

> <i_f3d_flags>
0

> <s_lp_Force_Field>
S-OPLS

> <r_lp_Energy>
50.237147

> <b_lp_Chiralities_Consistent>
1

> <s_lp_Variant>
Aztreonam-2

> <s_epik_input>
Tz1TKD1PKShbT0hdKU4xQyg9TylbQ0BASF0oW0NAQEhdMVtDSDNdKVtOSF1DKD1PKS9DKGMyW2NIXXNjKG4yKVtOSDJdKT1OL09DKFtDSDNdKShbQ0gzXSlDKD1PKVtPSF0=

> <s_epik_cmdline>
J2VwaWtfcHl0aG9uJywgJy1waHQnLCAnMC4wJywgJy1waCcsICc3LjQnLCAnLW50JywgJy1tYScsICc1MDAnLCAnLWltYWUnLCAnPGluZmlsZS5tYWU+JywgJy1vbWFlJywgJzxvdXRmaWxlLm1hZT4n

> <r_lp_tautomer_probability>
1

> <r_epik_Ionization_Penalty>
  0.0004

> <r_epik_Ionization_Penalty_Charging>
  0.0000

> <r_epik_Ionization_Penalty_Neutral>
  0.0004

> <r_epik_State_Penalty>
  0.0000

> <r_epik_Charging_Adjusted_Penalty>
4.45674509427693e-05

> <i_epik_Tot_Q>
-2

> <i_epik_Tot_abs_Q>
2

> <s_epik_Chemistry_Notes>
This compound has an imine and may undergo hydrolysis.

> <s_m_subgroup_title>
glide-dock_Nicaido_neutral_pv1

> <s_m_subgroupid>
glide-dock_Nicaido_neutral_pv1

> <b_m_subgroup_collapsed>
0

$$$$
LY097964
                    3D
 Schrodinger Suite 2022-2.
 40 42  0  0  1  0            999 V2000
  -23.8904  -23.9911  -17.2586 C   0  0  0  0  0  0
  -24.3002  -23.0860  -18.2627 O   0  0  0  0  0  0
  -25.5854  -23.4617  -18.6775 N   0  0  0  0  0  0
  -26.2617  -22.4920  -19.1567 C   0  0  0  0  0  0
  -25.7828  -21.0716  -19.1867 C   0  0  0  0  0  0
  -25.6988  -20.3566  -20.3636 C   0  0  0  0  0  0
  -25.0777  -18.7480  -20.1178 S   0  0  0  0  0  0
  -24.8954  -19.1234  -18.4137 C   0  0  0  0  0  0
  -24.3701  -18.2056  -17.5227 N   0  0  0  0  0  0
  -25.3058  -20.3479  -18.0832 N   0  0  0  0  0  0
  -27.6284  -22.7848  -19.7645 C   0  0  0  0  0  0
  -28.3693  -21.6984  -20.0578 N   0  0  0  0  0  0
  -29.5522  -21.6273  -20.9247 C   0  0  1  0  0  0
  -29.5202  -20.3209  -21.7489 C   0  0  1  0  0  0
  -29.5918  -21.1353  -22.9460 N   0  0  0  0  0  0
  -29.4158  -22.3492  -22.2958 C   0  0  0  0  0  0
  -29.2269  -23.4824  -22.6939 O   0  0  0  0  0  0
  -29.6213  -20.5710  -24.2390 C   0  0  0  0  0  0
  -29.2314  -21.5496  -25.4019 C   0  0  0  0  0  0
  -29.9688  -21.5546  -26.4134 O   0  5  0  0  0  0
  -28.2502  -22.3069  -25.2131 O   0  0  0  0  0  0
  -29.9237  -19.2561  -24.4451 C   0  0  0  0  0  0
  -30.3784  -18.3044  -23.3374 C   0  0  0  0  0  0
  -30.8953  -19.1380  -21.8176 S   0  0  0  0  0  0
  -29.8536  -18.5517  -25.7954 C   0  0  0  0  0  0
  -27.9702  -23.9463  -20.0151 O   0  0  0  0  0  0
  -22.8984  -23.7168  -16.9010 H   0  0  0  0  0  0
  -24.5761  -23.9492  -16.4134 H   0  0  0  0  0  0
  -23.8500  -25.0148  -17.6324 H   0  0  0  0  0  0
  -25.9701  -20.6677  -21.3621 H   0  0  0  0  0  0
  -24.5461  -18.3479  -16.5385 H   0  0  0  0  0  0
  -24.3165  -17.2339  -17.7925 H   0  0  0  0  0  0
  -28.0485  -20.8045  -19.7110 H   0  0  0  0  0  0
  -30.5015  -21.7822  -20.4134 H   0  0  0  0  0  0
  -28.5633  -19.7944  -21.7017 H   0  0  0  0  0  0
  -29.5690  -17.6139  -23.1041 H   0  0  0  0  0  0
  -31.2157  -17.7002  -23.6877 H   0  0  0  0  0  0
  -29.3517  -17.5894  -25.6848 H   0  0  0  0  0  0
  -29.2987  -19.1038  -26.5511 H   0  0  0  0  0  0
  -30.8583  -18.3629  -26.1726 H   0  0  0  0  0  0
  1  2  1  0  0  0
  1 27  1  0  0  0
  1 28  1  0  0  0
  1 29  1  0  0  0
  2  3  1  0  0  0
  3  4  2  3  0  0
  4  5  1  0  0  0
  4 11  1  0  0  0
  5 10  1  0  0  0
  5  6  2  0  0  0
  6  7  1  0  0  0
  6 30  1  0  0  0
  7  8  1  0  0  0
  8  9  1  0  0  0
  8 10  2  0  0  0
  9 31  1  0  0  0
  9 32  1  0  0  0
 11 12  1  0  0  0
 11 26  2  0  0  0
 12 13  1  0  0  0
 12 33  1  0  0  0
 13 16  1  0  0  0
 13 14  1  0  0  0
 13 34  1  0  0  0
 14 24  1  0  0  0
 14 15  1  0  0  0
 14 35  1  0  0  0
 15 16  1  0  0  0
 15 18  1  0  0  0
 16 17  2  0  0  0
 18 19  1  0  0  0
 18 22  2  0  0  0
 19 20  1  0  0  0
 19 21  2  0  0  0
 22 23  1  0  0  0
 22 25  1  0  0  0
 23 24  1  0  0  0
 23 36  1  0  0  0
 23 37  1  0  0  0
 25 38  1  0  0  0
 25 39  1  0  0  0
 25 40  1  0  0  0
M  CHG  1  20  -1
M  END
> <s_m_entry_id>
27562

> <s_m_entry_name>
data_maestro.7

> <s_m_Source_Path>
C:\Users\olshana1\Git\GramNeg-Accumulation\Gram Negative Permeation - OmpF

> <s_m_Source_File>
data_maestro.csv

> <i_m_Source_File_Index>
7

> <s_m_job_name>
glide-dock_Nicaido_neutral

> <s_i_glide_gridfile>
3POX-grid

> <i_i_glide_lignum>
9

> <i_i_glide_rotatable_bonds>
6

> <r_i_docking_score>
-4.61444667584331

> <r_i_glide_ligand_efficiency>
-0.177478718301666

> <r_i_glide_ligand_efficiency_sa>
-0.52578000462365

> <r_i_glide_ligand_efficiency_ln>
-1.08368766058728

> <r_i_glide_gscore>
-4.61444667584331

> <r_i_glide_lipo>
0

> <r_i_glide_hbond>
-0.805691480060006

> <r_i_glide_metal>
0

> <r_i_glide_rewards>
-0.589870225110584

> <r_i_glide_evdw>
-31.0046119689941

> <r_i_glide_ecoul>
-11.4160099029541

> <r_i_glide_erotb>
0.622478626066327

> <r_i_glide_esite>
-0.578731512846223

> <r_i_glide_emodel>
-63.1944678582222

> <r_i_glide_energy>
-42.4206218719482

> <r_i_glide_einternal>
4.14668083190918

> <i_i_glide_confnum>
32

> <i_i_glide_posenum>
360

> <r_i_glide_eff_state_penalty>
0

> <r_glide_res:A132_vdw>
-1.10276370443766

> <r_glide_res:A132_coul>
-33.844786321768

> <r_glide_res:A132_hbond>
-0.16

> <r_glide_res:A132_dist>
1.83573925805418

> <r_glide_res:A132_Eint>
-35.1075500262057

> <r_glide_res:A117_vdw>
-4.10009626927716

> <r_glide_res:A117_coul>
21.6386686530823

> <r_glide_res:A117_hbond>
0

> <r_glide_res:A117_dist>
2.28438600854587

> <r_glide_res:A117_Eint>
17.5385723838051

> <r_glide_res:A113_vdw>
-3.49350178736192

> <r_glide_res:A113_coul>
16.3821399921667

> <r_glide_res:A113_hbond>
0

> <r_glide_res:A113_dist>
2.3958474032661

> <r_glide_res:A113_Eint>
12.8886382048048

> <r_glide_res:A82_vdw>
-1.67825798852107

> <r_glide_res:A82_coul>
-39.0422284731792

> <r_glide_res:A82_hbond>
-0.0559999166092175

> <r_glide_res:A82_dist>
2.36000020847696

> <r_glide_res:A82_Eint>
-40.7764863783095

> <r_glide_res:A42_vdw>
0.787735315239509

> <r_glide_res:A42_coul>
-52.1967443472839

> <r_glide_res:A42_hbond>
-0.389691563450789

> <r_glide_res:A42_dist>
1.82850699268005

> <r_glide_res:A42_Eint>
-51.7987005954952

> <r_glide_res:A16_vdw>
0.435833060229999

> <r_glide_res:A16_coul>
-47.7706266703346

> <r_glide_res:A16_hbond>
-0.2

> <r_glide_res:A16_dist>
1.7807374528292

> <r_glide_res:A16_Eint>
-47.5347936101046

> <s_m_source_file>
ligprep_Nicaido_neutral.maegz

> <i_m_source_file_index>
7

> <i_lp_mmshare_version>
58128

> <i_f3d_flags>
0

> <s_lp_Force_Field>
S-OPLS

> <r_lp_Energy>
53.750759

> <b_lp_Chiralities_Consistent>
1

> <s_lp_Variant>
LY097964-1

> <s_epik_input>
W05IMl1jKG4xKXNbY0hdYzEvQyg9TlxPW0NIM10pQyg9TylbTkhdW0NAQEhdMkMoPU8pTihbQ0BIXTIzKUMoQyg9TylbT0hdKT1DKFtDSDJdUzMpW0NIM10=

> <s_epik_cmdline>
J2VwaWtfcHl0aG9uJywgJy1waHQnLCAnMC4wJywgJy1waCcsICc3LjQnLCAnLW50JywgJy1tYScsICc1MDAnLCAnLWltYWUnLCAnPGluZmlsZS5tYWU+JywgJy1vbWFlJywgJzxvdXRmaWxlLm1hZT4n

> <r_lp_tautomer_probability>
1

> <r_epik_Ionization_Penalty>
  0.0005

> <r_epik_Ionization_Penalty_Charging>
  0.0000

> <r_epik_Ionization_Penalty_Neutral>
  0.0005

> <r_epik_State_Penalty>
  0.0000

> <r_epik_Charging_Adjusted_Penalty>
1.64985111359435e-05

> <i_epik_Tot_Q>
-1

> <i_epik_Tot_abs_Q>
1

> <s_epik_Chemistry_Notes>
This compound has an imine and may undergo hydrolysis. This compound contains an acetal/aminal-like group ( X-CH(R)-Y where X, Y are N, S, or O) that may be acid/base labile, releasing an aldehyde.

> <s_m_subgroup_title>
glide-dock_Nicaido_neutral_pv1

> <s_m_subgroupid>
glide-dock_Nicaido_neutral_pv1

> <b_m_subgroup_collapsed>
0

$$$$
Cephalothin
                    3D
 Schrodinger Suite 2022-2.
 41 43  0  0  1  0            999 V2000
  -24.7387  -22.2924  -21.4243 C   0  0  0  0  0  0
  -26.1494  -22.7750  -21.1188 C   0  0  0  0  0  0
  -27.0533  -21.7948  -21.2396 O   0  0  0  0  0  0
  -28.4261  -22.0339  -20.9669 C   0  0  0  0  0  0
  -29.3056  -21.2284  -21.9139 C   0  0  0  0  0  0
  -29.6059  -21.5868  -23.1884 C   0  0  0  0  0  0
  -30.4519  -20.7553  -23.9480 N   0  0  0  0  0  0
  -30.2576  -19.3080  -23.9576 C   0  0  1  0  0  0
  -31.5326  -19.2625  -24.8202 C   0  0  2  0  0  0
  -31.1779  -20.7394  -25.1316 C   0  0  0  0  0  0
  -31.3712  -21.5496  -26.0133 O   0  0  0  0  0  0
  -31.4802  -18.2923  -25.9255 N   0  0  0  0  0  0
  -30.6181  -18.2198  -26.9547 C   0  0  0  0  0  0
  -30.8362  -17.1113  -27.9866 C   0  0  0  0  0  0
  -32.2799  -16.8780  -28.3233 C   0  0  0  0  0  0
  -33.0623  -17.5789  -29.2066 C   0  0  0  0  0  0
  -34.3774  -17.0463  -29.3345 C   0  0  0  0  0  0
  -34.5846  -15.9489  -28.5433 C   0  0  0  0  0  0
  -33.1690  -15.5507  -27.6130 S   0  0  0  0  0  0
  -29.6839  -19.0020  -27.1134 O   0  0  0  0  0  0
  -30.2635  -18.5939  -22.2828 S   0  0  0  0  0  0
  -29.9692  -20.0405  -21.2335 C   0  0  0  0  0  0
  -29.0100  -22.8624  -23.9065 C   0  0  0  0  0  0
  -28.7981  -23.8897  -23.2134 O   0  5  0  0  0  0
  -28.7694  -22.7495  -25.1319 O   0  0  0  0  0  0
  -26.3712  -23.9495  -20.8122 O   0  0  0  0  0  0
  -24.4058  -21.5961  -20.6545 H   0  0  0  0  0  0
  -24.0431  -23.1305  -21.4589 H   0  0  0  0  0  0
  -24.7155  -21.7798  -22.3862 H   0  0  0  0  0  0
  -28.6282  -21.7370  -19.9376 H   0  0  0  0  0  0
  -28.6884  -23.0886  -21.0134 H   0  0  0  0  0  0
  -29.3365  -19.0389  -24.4813 H   0  0  0  0  0  0
  -32.4294  -19.1436  -24.2095 H   0  0  0  0  0  0
  -32.1857  -17.5705  -25.8976 H   0  0  0  0  0  0
  -30.2856  -17.3633  -28.8934 H   0  0  0  0  0  0
  -30.3815  -16.1961  -27.6134 H   0  0  0  0  0  0
  -32.7353  -18.4340  -29.7787 H   0  0  0  0  0  0
  -35.1088  -17.4696  -30.0055 H   0  0  0  0  0  0
  -35.4693  -15.3368  -28.4616 H   0  0  0  0  0  0
  -30.9174  -20.3753  -20.8134 H   0  0  0  0  0  0
  -29.3441  -19.6901  -20.4138 H   0  0  0  0  0  0
  1  2  1  0  0  0
  1 27  1  0  0  0
  1 28  1  0  0  0
  1 29  1  0  0  0
  2  3  1  0  0  0
  2 26  2  0  0  0
  3  4  1  0  0  0
  4  5  1  0  0  0
  4 30  1  0  0  0
  4 31  1  0  0  0
  5 22  1  0  0  0
  5  6  2  0  0  0
  6  7  1  0  0  0
  6 23  1  0  0  0
  7 10  1  0  0  0
  7  8  1  0  0  0
  8  9  1  0  0  0
  8 21  1  0  0  0
  8 32  1  0  0  0
  9 10  1  0  0  0
  9 12  1  0  0  0
  9 33  1  0  0  0
 10 11  2  0  0  0
 12 13  1  0  0  0
 12 34  1  0  0  0
 13 14  1  0  0  0
 13 20  2  0  0  0
 14 15  1  0  0  0
 14 35  1  0  0  0
 14 36  1  0  0  0
 15 19  1  0  0  0
 15 16  2  0  0  0
 16 17  1  0  0  0
 16 37  1  0  0  0
 17 18  2  0  0  0
 17 38  1  0  0  0
 18 19  1  0  0  0
 18 39  1  0  0  0
 21 22  1  0  0  0
 22 40  1  0  0  0
 22 41  1  0  0  0
 23 24  1  0  0  0
 23 25  2  0  0  0
M  CHG  1  24  -1
M  END
> <s_m_entry_id>
27563

> <s_m_entry_name>
data_maestro.33

> <s_m_Source_Path>
C:\Users\olshana1\Git\GramNeg-Accumulation\Gram Negative Permeation - OmpF

> <s_m_Source_File>
data_maestro.csv

> <i_m_Source_File_Index>
33

> <s_m_job_name>
glide-dock_Nicaido_neutral

> <s_i_glide_gridfile>
3POX-grid

> <i_i_glide_lignum>
42

> <i_i_glide_rotatable_bonds>
8

> <r_i_docking_score>
-4.6142630642986

> <r_i_glide_ligand_efficiency>
-0.177471656319177

> <r_i_glide_ligand_efficiency_sa>
-0.525759083528314

> <r_i_glide_ligand_efficiency_ln>
-1.08364454001849

> <r_i_glide_gscore>
-4.6142630642986

> <r_i_glide_lipo>
-0.406124027157501

> <r_i_glide_hbond>
-0.749961773861051

> <r_i_glide_metal>
0

> <r_i_glide_rewards>
-0.712955320355661

> <r_i_glide_evdw>
-27.3785247802734

> <r_i_glide_ecoul>
-10.5270080566406

> <r_i_glide_erotb>
0.625287901339008

> <r_i_glide_esite>
-0.422532396753627

> <r_i_glide_emodel>
-59.4227178869805

> <r_i_glide_energy>
-37.9055328369141

> <r_i_glide_einternal>
5.44526624679565

> <i_i_glide_confnum>
101

> <i_i_glide_posenum>
191

> <r_i_glide_eff_state_penalty>
0

> <r_glide_res:A132_vdw>
-0.419817003674632

> <r_glide_res:A132_coul>
-36.1817198911422

> <r_glide_res:A132_hbond>
-0.16

> <r_glide_res:A132_dist>
1.82472863776799

> <r_glide_res:A132_Eint>
-36.7615368948168

> <r_glide_res:A117_vdw>
-3.39748039110995

> <r_glide_res:A117_coul>
24.295802667464

> <r_glide_res:A117_hbond>
0

> <r_glide_res:A117_dist>
3.3222319077316

> <r_glide_res:A117_Eint>
20.8983222763541

> <r_glide_res:A113_vdw>
0.0360717349431676

> <r_glide_res:A113_coul>
19.9569251476738

> <r_glide_res:A113_hbond>
0

> <r_glide_res:A113_dist>
2.2131441102592

> <r_glide_res:A113_Eint>
19.992996882617

> <r_glide_res:A82_vdw>
0.0800883440982436

> <r_glide_res:A82_coul>
-49.2441204359598

> <r_glide_res:A82_hbond>
-0.262401703129629

> <r_glide_res:A82_dist>
1.93650545710703

> <r_glide_res:A82_Eint>
-49.4264337949912

> <r_glide_res:A42_vdw>
1.15752859395011

> <r_glide_res:A42_coul>
-52.6664211926167

> <r_glide_res:A42_hbond>
-0.304025263624156

> <r_glide_res:A42_dist>
1.7436628080434

> <r_glide_res:A42_Eint>
-51.8129178622907

> <r_glide_res:A16_vdw>
-1.67799772444455

> <r_glide_res:A16_coul>
-40.3170028651877

> <r_glide_res:A16_hbond>
-0.0235348071072655

> <r_glide_res:A16_dist>
2.3980361648209

> <r_glide_res:A16_Eint>
-42.0185353967395

> <s_m_source_file>
ligprep_Nicaido_neutral.maegz

> <i_m_source_file_index>
33

> <i_lp_mmshare_version>
58128

> <i_f3d_flags>
0

> <s_lp_Force_Field>
S-OPLS

> <r_lp_Energy>
31.39315

> <b_lp_Chiralities_Consistent>
1

> <s_lp_Variant>
Cephalothin-1

> <s_epik_input>
W0NIM11DKD1PKU9bQ0gyXUMoPUMxQyg9TylbT0hdKVtDSDJdU1tDQEBIXShOMTIpW0NASF0oQzI9TylbTkhdQyg9TylbQ0gyXWMzW2NIXVtjSF1bY0hdczM=

> <s_epik_cmdline>
J2VwaWtfcHl0aG9uJywgJy1waHQnLCAnMC4wJywgJy1waCcsICc3LjQnLCAnLW50JywgJy1tYScsICc1MDAnLCAnLWltYWUnLCAnPGluZmlsZS5tYWU+JywgJy1vbWFlJywgJzxvdXRmaWxlLm1hZT4n

> <r_lp_tautomer_probability>
1

> <r_epik_Ionization_Penalty>
  0.0000

> <r_epik_Ionization_Penalty_Charging>
  0.0000

> <r_epik_Ionization_Penalty_Neutral>
  0.0000

> <r_epik_State_Penalty>
  0.0000

> <r_epik_Charging_Adjusted_Penalty>
6.16900125885048e-06

> <i_epik_Tot_Q>
-1

> <i_epik_Tot_abs_Q>
1

> <s_epik_Chemistry_Notes>
This compound has an ester and may undergo hydrolysis at high or low pH. This compound contains an acetal/aminal-like group ( X-CH(R)-Y where X, Y are N, S, or O) that may be acid/base labile, releasing an aldehyde.

> <s_m_subgroup_title>
glide-dock_Nicaido_neutral_pv1

> <s_m_subgroupid>
glide-dock_Nicaido_neutral_pv1

> <b_m_subgroup_collapsed>
0

$$$$
Cefoxitin
                    3D
 Schrodinger Suite 2022-2.
 44 46  0  0  1  0            999 V2000
  -33.1065  -22.0753  -21.2781 C   0  0  0  0  0  0
  -32.2071  -22.3641  -22.3425 O   0  0  0  0  0  0
  -30.8388  -22.0375  -22.0822 C   0  0  2  0  0  0
  -30.4179  -20.5769  -22.4128 C   0  0  1  0  0  0
  -29.9715  -21.1065  -23.6918 N   0  0  0  0  0  0
  -29.9499  -22.4262  -23.2895 C   0  0  0  0  0  0
  -29.4239  -23.4225  -23.7466 O   0  0  0  0  0  0
  -29.5746  -20.3286  -24.7880 C   0  0  0  0  0  0
  -28.8394  -21.1486  -25.8803 C   0  0  0  0  0  0
  -27.6813  -21.5449  -25.6129 O   0  5  0  0  0  0
  -29.5688  -21.5495  -26.8130 O   0  0  0  0  0  0
  -29.8563  -19.0064  -24.9145 C   0  0  0  0  0  0
  -30.5854  -18.2103  -23.8355 C   0  0  0  0  0  0
  -31.6108  -19.2326  -22.7373 S   0  0  0  0  0  0
  -29.4196  -18.1759  -26.1213 C   0  0  0  0  0  0
  -30.1653  -18.4915  -27.3038 O   0  0  0  0  0  0
  -31.3317  -17.9040  -27.7030 C   0  0  0  0  0  0
  -31.6380  -16.7502  -27.0212 N   0  0  0  0  0  0
  -32.0222  -18.3497  -28.6160 O   0  0  0  0  0  0
  -30.3160  -22.5376  -20.8111 N   0  0  0  0  0  0
  -30.1240  -23.8279  -20.4873 C   0  0  0  0  0  0
  -29.5724  -24.1520  -19.0914 C   0  0  0  0  0  0
  -28.2682  -23.4545  -18.7979 C   0  0  0  0  0  0
  -28.0515  -22.1382  -18.4693 C   0  0  0  0  0  0
  -26.6842  -21.8228  -18.2275 C   0  0  0  0  0  0
  -25.8579  -22.9036  -18.3784 C   0  0  0  0  0  0
  -26.7560  -24.3283  -18.8132 S   0  0  0  0  0  0
  -30.3685  -24.7501  -21.2638 O   0  0  0  0  0  0
  -34.1315  -22.1998  -21.6254 H   0  0  0  0  0  0
  -32.9634  -22.7576  -20.4416 H   0  0  0  0  0  0
  -32.9955  -21.0527  -20.9160 H   0  0  0  0  0  0
  -29.5720  -20.2175  -21.8209 H   0  0  0  0  0  0
  -29.8487  -17.6687  -23.2397 H   0  0  0  0  0  0
  -31.2352  -17.4645  -24.2940 H   0  0  0  0  0  0
  -29.4482  -17.1168  -25.8853 H   0  0  0  0  0  0
  -28.3713  -18.3965  -26.3243 H   0  0  0  0  0  0
  -30.9494  -16.3051  -26.4144 H   0  0  0  0  0  0
  -32.4891  -16.2777  -27.2797 H   0  0  0  0  0  0
  -30.2152  -21.8572  -20.0642 H   0  0  0  0  0  0
  -29.4260  -25.2278  -19.0192 H   0  0  0  0  0  0
  -30.3284  -23.9497  -18.3329 H   0  0  0  0  0  0
  -28.8224  -21.3868  -18.3840 H   0  0  0  0  0  0
  -26.3662  -20.8290  -17.9456 H   0  0  0  0  0  0
  -24.7870  -22.9462  -18.2409 H   0  0  0  0  0  0
  1  2  1  0  0  0
  1 29  1  0  0  0
  1 30  1  0  0  0
  1 31  1  0  0  0
  2  3  1  0  0  0
  3  6  1  0  0  0
  3  4  1  0  0  0
  3 20  1  0  0  0
  4 14  1  0  0  0
  4  5  1  0  0  0
  4 32  1  0  0  0
  5  6  1  0  0  0
  5  8  1  0  0  0
  6  7  2  0  0  0
  8  9  1  0  0  0
  8 12  2  0  0  0
  9 10  1  0  0  0
  9 11  2  0  0  0
 12 13  1  0  0  0
 12 15  1  0  0  0
 13 14  1  0  0  0
 13 33  1  0  0  0
 13 34  1  0  0  0
 15 16  1  0  0  0
 15 35  1  0  0  0
 15 36  1  0  0  0
 16 17  1  0  0  0
 17 18  1  0  0  0
 17 19  2  0  0  0
 18 37  1  0  0  0
 18 38  1  0  0  0
 20 21  1  0  0  0
 20 39  1  0  0  0
 21 22  1  0  0  0
 21 28  2  0  0  0
 22 23  1  0  0  0
 22 40  1  0  0  0
 22 41  1  0  0  0
 23 27  1  0  0  0
 23 24  2  0  0  0
 24 25  1  0  0  0
 24 42  1  0  0  0
 25 26  2  0  0  0
 25 43  1  0  0  0
 26 27  1  0  0  0
 26 44  1  0  0  0
M  CHG  1  10  -1
M  END
> <s_m_entry_id>
27564

> <s_m_entry_name>
data_maestro.4

> <s_m_Source_Path>
C:\Users\olshana1\Git\GramNeg-Accumulation\Gram Negative Permeation - OmpF

> <s_m_Source_File>
data_maestro.csv

> <i_m_Source_File_Index>
4

> <s_m_job_name>
glide-dock_Nicaido_neutral

> <s_i_glide_gridfile>
3POX-grid

> <i_i_glide_lignum>
4

> <i_i_glide_rotatable_bonds>
9

> <r_i_docking_score>
-4.61308930083279

> <r_i_glide_ligand_efficiency>
-0.164753189315457

> <r_i_glide_ligand_efficiency_sa>
-0.500287717200972

> <r_i_glide_ligand_efficiency_ln>
-1.06483645681958

> <r_i_glide_gscore>
-4.61308930083279

> <r_i_glide_lipo>
0

> <r_i_glide_hbond>
-0.561118112672621

> <r_i_glide_metal>
0

> <r_i_glide_rewards>
0.28854145061673

> <r_i_glide_evdw>
-26.9437198638916

> <r_i_glide_ecoul>
-19.2202301025391

> <r_i_glide_erotb>
0.545654768997296

> <r_i_glide_esite>
-0.655946899198755

> <r_i_glide_emodel>
-63.3720276913663

> <r_i_glide_energy>
-46.1639499664307

> <r_i_glide_einternal>
10.8104000091553

> <i_i_glide_confnum>
56

> <i_i_glide_posenum>
224

> <r_i_glide_eff_state_penalty>
0

> <r_glide_res:A132_vdw>
-1.23646807010337

> <r_glide_res:A132_coul>
-26.3132668143793

> <r_glide_res:A132_hbond>
-0.00183320089945818

> <r_glide_res:A132_dist>
1.95870065666141

> <r_glide_res:A132_Eint>
-27.5515680853821

> <r_glide_res:A117_vdw>
-3.87590988782729

> <r_glide_res:A117_coul>
21.8297242030917

> <r_glide_res:A117_hbond>
0

> <r_glide_res:A117_dist>
2.12174790815986

> <r_glide_res:A117_Eint>
17.9538143152644

> <r_glide_res:A113_vdw>
-3.24095596762054

> <r_glide_res:A113_coul>
4.3097411373188

> <r_glide_res:A113_hbond>
-0.0604798255665972

> <r_glide_res:A113_dist>
2.16370447715831

> <r_glide_res:A113_Eint>
1.00830534413166

> <r_glide_res:A82_vdw>
-1.73570374607724

> <r_glide_res:A82_coul>
-40.5149621067234

> <r_glide_res:A82_hbond>
-0.0599549704578679

> <r_glide_res:A82_dist>
2.25950229593071

> <r_glide_res:A82_Eint>
-42.3106208232585

> <r_glide_res:A42_vdw>
0.371231731668932

> <r_glide_res:A42_coul>
-56.4788408373914

> <r_glide_res:A42_hbond>
-0.257067010106902

> <r_glide_res:A42_dist>
1.76874067539816

> <r_glide_res:A42_Eint>
-56.3646761158293

> <r_glide_res:A16_vdw>
4.00252612009448

> <r_glide_res:A16_coul>
-64.061806225867

> <r_glide_res:A16_hbond>
-0.181783105641796

> <r_glide_res:A16_dist>
1.54343750604624

> <r_glide_res:A16_Eint>
-60.2410632114143

> <s_m_source_file>
ligprep_Nicaido_neutral.maegz

> <i_m_source_file_index>
4

> <i_lp_mmshare_version>
58128

> <i_f3d_flags>
0

> <s_lp_Force_Field>
S-OPLS

> <r_lp_Energy>
27.517474

> <b_lp_Chiralities_Consistent>
1

> <s_lp_Variant>
Cefoxitin-1

> <s_epik_input>
czFbY0hdW2NIXVtjSF1jMVtDSDJdQyg9TylbTkhdW0NAXTIoT1tDSDNdKUMoPU8pTihbQ0BIXTIzKUMoQyg9TylbT0hdKT1DKFtDSDJdUzMpW0NIMl1PQyg9TylbTkgyXQ==

> <s_epik_cmdline>
J2VwaWtfcHl0aG9uJywgJy1waHQnLCAnMC4wJywgJy1waCcsICc3LjQnLCAnLW50JywgJy1tYScsICc1MDAnLCAnLWltYWUnLCAnPGluZmlsZS5tYWU+JywgJy1vbWFlJywgJzxvdXRmaWxlLm1hZT4n

> <r_lp_tautomer_probability>
1

> <r_epik_Ionization_Penalty>
  0.0000

> <r_epik_Ionization_Penalty_Charging>
  0.0000

> <r_epik_Ionization_Penalty_Neutral>
  0.0000

> <r_epik_State_Penalty>
  0.0000

> <r_epik_Charging_Adjusted_Penalty>
8.89144247208744e-06

> <i_epik_Tot_Q>
-1

> <i_epik_Tot_abs_Q>
1

> <s_epik_Chemistry_Notes>
This compound has an ester and may undergo hydrolysis at high or low pH. This compound contains an acetal/aminal-like group ( X-CH(R)-Y where X, Y are N, S, or O) that may be acid/base labile, releasing an aldehyde.

> <s_m_subgroup_title>
glide-dock_Nicaido_neutral_pv1

> <s_m_subgroupid>
glide-dock_Nicaido_neutral_pv1

> <b_m_subgroup_collapsed>
0

$$$$
Cefacetrile
                    3D
 Schrodinger Suite 2022-2.
 35 36  0  0  1  0            999 V2000
  -19.0104  -21.9128  -25.1706 C   0  0  0  0  0  0
  -20.2309  -22.7116  -25.6072 C   0  0  0  0  0  0
  -21.2394  -21.9144  -26.0119 O   0  0  0  0  0  0
  -22.4742  -22.4615  -26.4557 C   0  0  0  0  0  0
  -23.5994  -22.1092  -25.4939 C   0  0  0  0  0  0
  -24.1237  -22.9949  -24.6085 C   0  0  0  0  0  0
  -25.1060  -22.6292  -23.6754 N   0  0  0  0  0  0
  -25.4157  -21.2522  -23.3394 C   0  0  2  0  0  0
  -26.5200  -21.7938  -22.4031 C   0  0  2  0  0  0
  -25.9438  -23.1957  -22.7437 C   0  0  0  0  0  0
  -26.1182  -24.3492  -22.4108 O   0  0  0  0  0  0
  -27.8645  -21.4921  -22.9052 N   0  0  0  0  0  0
  -28.9562  -22.2760  -22.8705 C   0  0  0  0  0  0
  -30.2420  -21.6582  -23.4062 C   0  0  0  0  0  0
  -30.3179  -21.8181  -24.8636 C   0  0  0  0  0  0
  -30.3691  -21.9506  -26.0136 N   0  0  0  0  0  0
  -28.9601  -23.4443  -22.4763 O   0  0  0  0  0  0
  -25.7165  -20.3724  -24.9022 S   0  0  0  0  0  0
  -24.0693  -20.6574  -25.6108 C   0  0  0  0  0  0
  -23.6822  -24.4918  -24.5534 C   0  0  0  0  0  0
  -22.7093  -24.7496  -23.8136 O   0  5  0  0  0  0
  -24.3686  -25.3073  -25.2126 O   0  0  0  0  0  0
  -20.2288  -23.9457  -25.5903 O   0  0  0  0  0  0
  -18.4590  -21.5644  -26.0442 H   0  0  0  0  0  0
  -19.3108  -21.0467  -24.5809 H   0  0  0  0  0  0
  -18.3493  -22.5317  -24.5649 H   0  0  0  0  0  0
  -22.4092  -23.5373  -26.6157 H   0  0  0  0  0  0
  -22.7049  -22.0399  -27.4332 H   0  0  0  0  0  0
  -24.5904  -20.7938  -22.7906 H   0  0  0  0  0  0
  -26.3684  -21.4784  -21.3707 H   0  0  0  0  0  0
  -27.9802  -20.5529  -23.2627 H   0  0  0  0  0  0
  -30.2949  -20.5971  -23.1610 H   0  0  0  0  0  0
  -31.1073  -22.1438  -22.9552 H   0  0  0  0  0  0
  -23.3461  -20.0065  -25.1172 H   0  0  0  0  0  0
  -24.1007  -20.3611  -26.6590 H   0  0  0  0  0  0
  1  2  1  0  0  0
  1 24  1  0  0  0
  1 25  1  0  0  0
  1 26  1  0  0  0
  2  3  1  0  0  0
  2 23  2  0  0  0
  3  4  1  0  0  0
  4  5  1  0  0  0
  4 27  1  0  0  0
  4 28  1  0  0  0
  5 19  1  0  0  0
  5  6  2  0  0  0
  6  7  1  0  0  0
  6 20  1  0  0  0
  7 10  1  0  0  0
  7  8  1  0  0  0
  8  9  1  0  0  0
  8 18  1  0  0  0
  8 29  1  0  0  0
  9 10  1  0  0  0
  9 12  1  0  0  0
  9 30  1  0  0  0
 10 11  2  0  0  0
 12 13  1  0  0  0
 12 31  1  0  0  0
 13 14  1  0  0  0
 13 17  2  0  0  0
 14 15  1  0  0  0
 14 32  1  0  0  0
 14 33  1  0  0  0
 15 16  3  0  0  0
 18 19  1  0  0  0
 19 34  1  0  0  0
 19 35  1  0  0  0
 20 21  1  0  0  0
 20 22  2  0  0  0
M  CHG  1  21  -1
M  END
> <s_m_entry_id>
27565

> <s_m_entry_name>
data_maestro.1

> <s_m_Source_Path>
C:\Users\olshana1\Git\GramNeg-Accumulation\Gram Negative Permeation - OmpF

> <s_m_Source_File>
data_maestro.csv

> <i_m_Source_File_Index>
1

> <s_m_job_name>
glide-dock_Nicaido_neutral

> <s_i_glide_gridfile>
3POX-grid

> <i_i_glide_lignum>
1

> <i_i_glide_rotatable_bonds>
7

> <r_i_docking_score>
-4.61096152014215

> <r_i_glide_ligand_efficiency>
-0.200476587832267

> <r_i_glide_ligand_efficiency_sa>
-0.570128747773618

> <r_i_glide_ligand_efficiency_ln>
-1.11497230545785

> <r_i_glide_gscore>
-4.61096152014215

> <r_i_glide_lipo>
-0.0307889048402618

> <r_i_glide_hbond>
-0.719058142429412

> <r_i_glide_metal>
0

> <r_i_glide_rewards>
-1.10200575727631

> <r_i_glide_evdw>
-18.503885269165

> <r_i_glide_ecoul>
-13.4416379928589

> <r_i_glide_erotb>
0.660867222788296

> <r_i_glide_esite>
-0.478535975997368

> <r_i_glide_emodel>
-53.349170800931

> <r_i_glide_energy>
-31.9455232620239

> <r_i_glide_einternal>
3.91567778587341

> <i_i_glide_confnum>
4

> <i_i_glide_posenum>
295

> <r_i_glide_eff_state_penalty>
0

> <r_glide_res:A132_vdw>
0.498792740274527

> <r_glide_res:A132_coul>
-37.0691244958079

> <r_glide_res:A132_hbond>
-0.0660787552690376

> <r_glide_res:A132_dist>
2.04124647006834

> <r_glide_res:A132_Eint>
-36.6364105108024

> <r_glide_res:A117_vdw>
-2.07405053687355

> <r_glide_res:A117_coul>
16.4304011732257

> <r_glide_res:A117_hbond>
0

> <r_glide_res:A117_dist>
3.44796776860588

> <r_glide_res:A117_Eint>
14.3563506363522

> <r_glide_res:A113_vdw>
-0.53388241687977

> <r_glide_res:A113_coul>
13.0655924663494

> <r_glide_res:A113_hbond>
0

> <r_glide_res:A113_dist>
4.5992835999595

> <r_glide_res:A113_Eint>
12.5317100494696

> <r_glide_res:A82_vdw>
-0.548859474114907

> <r_glide_res:A82_coul>
-49.9313156602322

> <r_glide_res:A82_hbond>
-0.287588133571942

> <r_glide_res:A82_dist>
1.87269065714871

> <r_glide_res:A82_Eint>
-50.7677632679191

> <r_glide_res:A42_vdw>
-3.0616236950081

> <r_glide_res:A42_coul>
-39.0924433672957

> <r_glide_res:A42_hbond>
-0.0714797598125313

> <r_glide_res:A42_dist>
2.30871281828705

> <r_glide_res:A42_Eint>
-42.2255468221164

> <r_glide_res:A16_vdw>
-0.376711496930147

> <r_glide_res:A16_coul>
-26.153965431372

> <r_glide_res:A16_hbond>
-0.093911493775901

> <r_glide_res:A16_dist>
2.25044953341559

> <r_glide_res:A16_Eint>
-26.6245884220781

> <s_m_source_file>
ligprep_Nicaido_neutral.maegz

> <i_m_source_file_index>
1

> <i_lp_mmshare_version>
58128

> <i_f3d_flags>
0

> <s_lp_Force_Field>
S-OPLS

> <r_lp_Energy>
24.277434

> <b_lp_Chiralities_Consistent>
1

> <s_lp_Variant>
Cefacetrile-1

> <s_epik_input>
W0NIM11DKD1PKU9bQ0gyXUMoPUMxQyg9TylbT0hdKVtDSDJdU1tDQEhdKE4xMilbQ0BIXShDMj1PKVtOSF1DKD1PKVtDSDJdQyNO

> <s_epik_cmdline>
J2VwaWtfcHl0aG9uJywgJy1waHQnLCAnMC4wJywgJy1waCcsICc3LjQnLCAnLW50JywgJy1tYScsICc1MDAnLCAnLWltYWUnLCAnPGluZmlsZS5tYWU+JywgJy1vbWFlJywgJzxvdXRmaWxlLm1hZT4n

> <r_lp_tautomer_probability>
1

> <r_epik_Ionization_Penalty>
  0.0000

> <r_epik_Ionization_Penalty_Charging>
  0.0000

> <r_epik_Ionization_Penalty_Neutral>
  0.0000

> <r_epik_State_Penalty>
  0.0000

> <r_epik_Charging_Adjusted_Penalty>
5.96156609429709e-06

> <i_epik_Tot_Q>
-1

> <i_epik_Tot_abs_Q>
1

> <s_epik_Chemistry_Notes>
This compound has an ester and may undergo hydrolysis at high or low pH. This compound contains an acetal/aminal-like group ( X-CH(R)-Y where X, Y are N, S, or O) that may be acid/base labile, releasing an aldehyde.

> <s_m_subgroup_title>
glide-dock_Nicaido_neutral_pv1

> <s_m_subgroupid>
glide-dock_Nicaido_neutral_pv1

> <b_m_subgroup_collapsed>
0

$$$$
Moxalactam
                    3D
 Schrodinger Suite 2022-2.
 54 57  0  0  1  0            999 V2000
  -27.0339  -21.8351  -17.9472 C   0  0  0  0  0  0
  -26.0705  -22.9123  -18.0747 N   0  0  0  0  0  0
  -24.8869  -23.1282  -17.4802 C   0  0  0  0  0  0
  -24.1829  -22.0065  -16.3066 S   0  0  0  0  0  0
  -22.4597  -22.5977  -16.1469 C   0  0  0  0  0  0
  -21.6802  -22.6955  -17.4601 C   0  0  0  0  0  0
  -21.0804  -23.8058  -17.9799 C   0  0  0  0  0  0
  -20.9947  -25.2369  -17.3044 C   0  0  0  0  0  0
  -20.0168  -25.9571  -17.6134 O   0  5  0  0  0  0
  -21.8743  -25.5496  -16.4756 O   0  0  0  0  0  0
  -20.4583  -23.6692  -19.2344 N   0  0  0  0  0  0
  -20.2126  -22.3635  -19.8259 C   0  0  2  0  0  0
  -21.3711  -21.5733  -19.6014 O   0  0  0  0  0  0
  -21.6060  -21.3686  -18.2170 C   0  0  0  0  0  0
  -20.1852  -23.0915  -21.1816 C   0  0  1  0  0  0
  -19.9808  -24.3778  -20.3302 C   0  0  0  0  0  0
  -19.6356  -25.5276  -20.5066 O   0  0  0  0  0  0
  -21.4923  -23.0124  -21.8345 N   0  0  0  0  0  0
  -21.8990  -23.6777  -22.9203 C   0  0  0  0  0  0
  -23.3894  -23.5006  -23.2764 C   0  0  2  0  0  0
  -23.9687  -24.8191  -23.8537 C   0  0  0  0  0  0
  -23.6802  -25.9026  -23.2919 O   0  5  0  0  0  0
  -24.7665  -24.7487  -24.8133 O   0  0  0  0  0  0
  -23.5370  -22.2960  -24.2119 C   0  0  0  0  0  0
  -22.9469  -22.2746  -25.4993 C   0  0  0  0  0  0
  -22.9621  -21.0956  -26.2706 C   0  0  0  0  0  0
  -23.5655  -19.9294  -25.7620 C   0  0  0  0  0  0
  -23.5192  -18.7654  -26.4719 O   0  0  0  0  0  0
  -24.1960  -19.9561  -24.5041 C   0  0  0  0  0  0
  -24.1813  -21.1335  -23.7333 C   0  0  0  0  0  0
  -21.1324  -24.3495  -23.6125 O   0  0  0  0  0  0
  -19.0534  -22.7887  -21.9949 O   0  0  0  0  0  0
  -19.1045  -21.5198  -22.6334 C   0  0  0  0  0  0
  -24.3672  -24.2745  -17.9045 N   0  0  0  0  0  0
  -25.2882  -24.7495  -18.8132 N   0  0  0  0  0  0
  -26.3056  -23.9480  -18.9191 N   0  0  0  0  0  0
  -26.5427  -20.9184  -17.6200 H   0  0  0  0  0  0
  -27.7927  -22.1106  -17.2146 H   0  0  0  0  0  0
  -27.5199  -21.6464  -18.9051 H   0  0  0  0  0  0
  -21.9347  -21.8947  -15.5003 H   0  0  0  0  0  0
  -22.4943  -23.5228  -15.5913 H   0  0  0  0  0  0
  -19.2666  -21.9190  -19.5065 H   0  0  0  0  0  0
  -22.5354  -20.8078  -18.1348 H   0  0  0  0  0  0
  -20.8209  -20.7473  -17.7846 H   0  0  0  0  0  0
  -22.1702  -22.4538  -21.3346 H   0  0  0  0  0  0
  -23.9439  -23.3069  -22.3571 H   0  0  0  0  0  0
  -22.4433  -23.1499  -25.8836 H   0  0  0  0  0  0
  -22.4837  -21.0781  -27.2392 H   0  0  0  0  0  0
  -23.9701  -18.0362  -26.0217 H   0  0  0  0  0  0
  -24.6649  -19.0637  -24.1133 H   0  0  0  0  0  0
  -24.6314  -21.1213  -22.7516 H   0  0  0  0  0  0
  -18.1710  -21.3451  -23.1678 H   0  0  0  0  0  0
  -19.2302  -20.7145  -21.9091 H   0  0  0  0  0  0
  -19.9148  -21.4643  -23.3610 H   0  0  0  0  0  0
  1  2  1  0  0  0
  1 37  1  0  0  0
  1 38  1  0  0  0
  1 39  1  0  0  0
  2 36  1  0  0  0
  2  3  1  0  0  0
  3  4  1  0  0  0
  3 34  2  0  0  0
  4  5  1  0  0  0
  5  6  1  0  0  0
  5 40  1  0  0  0
  5 41  1  0  0  0
  6 14  1  0  0  0
  6  7  2  0  0  0
  7  8  1  0  0  0
  7 11  1  0  0  0
  8  9  1  0  0  0
  8 10  2  0  0  0
 11 16  1  0  0  0
 11 12  1  0  0  0
 12 13  1  0  0  0
 12 15  1  0  0  0
 12 42  1  0  0  0
 13 14  1  0  0  0
 14 43  1  0  0  0
 14 44  1  0  0  0
 15 16  1  0  0  0
 15 18  1  0  0  0
 15 32  1  0  0  0
 16 17  2  0  0  0
 18 19  1  0  0  0
 18 45  1  0  0  0
 19 20  1  0  0  0
 19 31  2  0  0  0
 20 21  1  0  0  0
 20 24  1  0  0  0
 20 46  1  0  0  0
 21 22  1  0  0  0
 21 23  2  0  0  0
 24 30  1  0  0  0
 24 25  2  0  0  0
 25 26  1  0  0  0
 25 47  1  0  0  0
 26 27  2  0  0  0
 26 48  1  0  0  0
 27 28  1  0  0  0
 27 29  1  0  0  0
 28 49  1  0  0  0
 29 30  2  0  0  0
 29 50  1  0  0  0
 30 51  1  0  0  0
 32 33  1  0  0  0
 33 52  1  0  0  0
 33 53  1  0  0  0
 33 54  1  0  0  0
 34 35  1  0  0  0
 35 36  2  0  0  0
M  CHG  2   9  -1  22  -1
M  END
> <s_m_entry_id>
27566

> <s_m_entry_name>
data_maestro.20

> <s_m_Source_Path>
C:\Users\olshana1\Git\GramNeg-Accumulation\Gram Negative Permeation - OmpF

> <s_m_Source_File>
data_maestro.csv

> <i_m_Source_File_Index>
20

> <s_m_job_name>
glide-dock_Nicaido_neutral

> <s_i_glide_gridfile>
3POX-grid

> <i_i_glide_lignum>
25

> <i_i_glide_rotatable_bonds>
11

> <r_i_docking_score>
-4.60607933009

> <r_i_glide_ligand_efficiency>
-0.127946648058056

> <r_i_glide_ligand_efficiency_sa>
-0.422470523122981

> <r_i_glide_ligand_efficiency_ln>
-1.00492206794317

> <r_i_glide_gscore>
-4.60607933009

> <r_i_glide_lipo>
0

> <r_i_glide_hbond>
-0.534562407693144

> <r_i_glide_metal>
0

> <r_i_glide_rewards>
0.00273279151877629

> <r_i_glide_evdw>
-26.5346813201904

> <r_i_glide_ecoul>
-17.733226776123

> <r_i_glide_erotb>
0.534860792752126

> <r_i_glide_esite>
-0.622392424239781

> <r_i_glide_emodel>
-70.7712243441865

> <r_i_glide_energy>
-44.2679080963135

> <r_i_glide_einternal>
11.650053024292

> <i_i_glide_confnum>
99

> <i_i_glide_posenum>
295

> <r_i_glide_eff_state_penalty>
0

> <r_glide_res:A132_vdw>
-2.00449464921916

> <r_glide_res:A132_coul>
-58.2322407514418

> <r_glide_res:A132_hbond>
0

> <r_glide_res:A132_dist>
2.40555670237107

> <r_glide_res:A132_Eint>
-60.236735400661

> <r_glide_res:A117_vdw>
3.14815614273449

> <r_glide_res:A117_coul>
19.0300693292499

> <r_glide_res:A117_hbond>
-0.134582853345656

> <r_glide_res:A117_dist>
1.53645713336414

> <r_glide_res:A117_Eint>
22.0436426186388

> <r_glide_res:A113_vdw>
-0.611623915823021

> <r_glide_res:A113_coul>
27.102824014987

> <r_glide_res:A113_hbond>
0

> <r_glide_res:A113_dist>
3.579317895631

> <r_glide_res:A113_Eint>
26.4912000991639

> <r_glide_res:A82_vdw>
0.972394241540535

> <r_glide_res:A82_coul>
-59.9891091405469

> <r_glide_res:A82_hbond>
-0.0778393498771997

> <r_glide_res:A82_dist>
2.04704575585124

> <r_glide_res:A82_Eint>
-59.0945542488836

> <r_glide_res:A42_vdw>
-0.744094856409687

> <r_glide_res:A42_coul>
-50.4272951302987

> <r_glide_res:A42_hbond>
0

> <r_glide_res:A42_dist>
2.61130815194036

> <r_glide_res:A42_Eint>
-51.1713899867084

> <r_glide_res:A16_vdw>
-0.0858053617212205

> <r_glide_res:A16_coul>
-28.5333148718224

> <r_glide_res:A16_hbond>
0

> <r_glide_res:A16_dist>
7.18968755255107

> <r_glide_res:A16_Eint>
-28.6191202335436

> <s_m_source_file>
ligprep_Nicaido_neutral.maegz

> <i_m_source_file_index>
20

> <i_lp_mmshare_version>
58128

> <i_f3d_flags>
0

> <s_lp_Force_Field>
S-OPLS

> <r_lp_Energy>
52.146636

> <b_lp_Chiralities_Consistent>
1

> <s_lp_Variant>
Moxalactam-1

> <s_epik_input>
bjFubmMobjFbQ0gzXSlTW0NIMl1DKD1DMkMoPU8pW09IXSlbQ0gyXU9bQ0BASF0oTjIzKVtDQF0oQzM9TykoT1tDSDNdKVtOSF1DKD1PKVtDQEhdKEMoPU8pW09IXSljNFtjSF1bY0hdYyhbT0hdKVtjSF1bY0hdNA==

> <s_epik_cmdline>
J2VwaWtfcHl0aG9uJywgJy1waHQnLCAnMC4wJywgJy1waCcsICc3LjQnLCAnLW50JywgJy1tYScsICc1MDAnLCAnLWltYWUnLCAnPGluZmlsZS5tYWU+JywgJy1vbWFlJywgJzxvdXRmaWxlLm1hZT4n

> <r_lp_tautomer_probability>
1

> <r_epik_Ionization_Penalty>
  0.0029

> <r_epik_Ionization_Penalty_Charging>
  0.0001

> <r_epik_Ionization_Penalty_Neutral>
  0.0029

> <r_epik_State_Penalty>
  0.0000

> <r_epik_Charging_Adjusted_Penalty>
5.78268703870383e-05

> <i_epik_Tot_Q>
-2

> <i_epik_Tot_abs_Q>
2

> <s_epik_Chemistry_Notes>
This compound contains an acetal/aminal-like group ( X-CH(R)-Y where X, Y are N, S, or O) that may be acid/base labile, releasing an aldehyde.

> <s_m_subgroup_title>
glide-dock_Nicaido_neutral_pv1

> <s_m_subgroupid>
glide-dock_Nicaido_neutral_pv1

> <b_m_subgroup_collapsed>
0

$$$$
Cefazolin
                    3D
 Schrodinger Suite 2022-2.
 42 45  0  0  1  0            999 V2000
  -34.3790  -16.6904  -29.6133 C   0  0  0  0  0  0
  -33.4303  -17.3027  -28.6411 C   0  0  0  0  0  0
  -33.3154  -18.6257  -28.4861 N   0  0  0  0  0  0
  -32.3690  -18.9575  -27.5286 N   0  0  0  0  0  0
  -31.7690  -17.8824  -27.0042 C   0  0  0  0  0  0
  -32.3689  -16.3495  -27.6134 S   0  0  0  0  0  0
  -30.4408  -17.9496  -25.8486 S   0  0  0  0  0  0
  -30.9934  -19.3463  -24.8317 C   0  0  0  0  0  0
  -29.9315  -19.7924  -23.8322 C   0  0  0  0  0  0
  -29.0881  -20.8350  -24.0535 C   0  0  0  0  0  0
  -28.0843  -21.2059  -23.1462 N   0  0  0  0  0  0
  -27.5283  -20.2934  -22.1712 C   0  0  2  0  0  0
  -26.6252  -21.4552  -21.6939 C   0  0  2  0  0  0
  -27.3109  -22.2976  -22.7982 C   0  0  0  0  0  0
  -27.2605  -23.4379  -23.2134 O   0  0  0  0  0  0
  -26.9192  -21.8858  -20.3252 N   0  0  0  0  0  0
  -26.5321  -23.0500  -19.7770 C   0  0  0  0  0  0
  -26.7918  -23.2305  -18.2811 C   0  0  0  0  0  0
  -27.6958  -24.3328  -18.0134 N   0  0  0  0  0  0
  -28.9798  -24.3275  -17.6678 C   0  0  0  0  0  0
  -29.4199  -25.5496  -17.4207 N   0  0  0  0  0  0
  -28.3065  -26.3438  -17.6134 N   0  0  0  0  0  0
  -27.2883  -25.6324  -18.0134 N   0  0  0  0  0  0
  -25.9753  -23.9496  -20.4134 O   0  0  0  0  0  0
  -28.9061  -19.6138  -21.2134 S   0  0  0  0  0  0
  -29.8713  -18.9144  -22.5815 C   0  0  0  0  0  0
  -29.0451  -21.6269  -25.3879 C   0  0  0  0  0  0
  -27.9689  -21.5496  -26.0134 O   0  5  0  0  0  0
  -30.0202  -22.3496  -25.6919 O   0  0  0  0  0  0
  -34.1669  -17.0517  -30.6200 H   0  0  0  0  0  0
  -35.4038  -16.9541  -29.3530 H   0  0  0  0  0  0
  -34.2852  -15.6043  -29.6053 H   0  0  0  0  0  0
  -31.2923  -20.1707  -25.4741 H   0  0  0  0  0  0
  -31.8976  -19.0557  -24.2962 H   0  0  0  0  0  0
  -26.9669  -19.4961  -22.6632 H   0  0  0  0  0  0
  -25.5685  -21.2488  -21.8673 H   0  0  0  0  0  0
  -27.4197  -21.2181  -19.7514 H   0  0  0  0  0  0
  -27.2112  -22.3210  -17.8467 H   0  0  0  0  0  0
  -25.8485  -23.4194  -17.7674 H   0  0  0  0  0  0
  -29.5689  -23.4314  -17.5622 H   0  0  0  0  0  0
  -29.4457  -17.9496  -22.8566 H   0  0  0  0  0  0
  -30.8776  -18.7215  -22.2090 H   0  0  0  0  0  0
  1  2  1  0  0  0
  1 30  1  0  0  0
  1 31  1  0  0  0
  1 32  1  0  0  0
  2  6  1  0  0  0
  2  3  2  0  0  0
  3  4  1  0  0  0
  4  5  2  0  0  0
  5  6  1  0  0  0
  5  7  1  0  0  0
  7  8  1  0  0  0
  8  9  1  0  0  0
  8 33  1  0  0  0
  8 34  1  0  0  0
  9 26  1  0  0  0
  9 10  2  0  0  0
 10 11  1  0  0  0
 10 27  1  0  0  0
 11 14  1  0  0  0
 11 12  1  0  0  0
 12 13  1  0  0  0
 12 25  1  0  0  0
 12 35  1  0  0  0
 13 14  1  0  0  0
 13 16  1  0  0  0
 13 36  1  0  0  0
 14 15  2  0  0  0
 16 17  1  0  0  0
 16 37  1  0  0  0
 17 18  1  0  0  0
 17 24  2  0  0  0
 18 19  1  0  0  0
 18 38  1  0  0  0
 18 39  1  0  0  0
 19 23  1  0  0  0
 19 20  1  0  0  0
 20 21  2  0  0  0
 20 40  1  0  0  0
 21 22  1  0  0  0
 22 23  2  0  0  0
 25 26  1  0  0  0
 26 41  1  0  0  0
 26 42  1  0  0  0
 27 28  1  0  0  0
 27 29  2  0  0  0
M  CHG  1  28  -1
M  END
> <s_m_entry_id>
27567

> <s_m_entry_name>
data_maestro.2

> <s_m_Source_Path>
C:\Users\olshana1\Git\GramNeg-Accumulation\Gram Negative Permeation - OmpF

> <s_m_Source_File>
data_maestro.csv

> <i_m_Source_File_Index>
2

> <s_m_job_name>
glide-dock_Nicaido_neutral

> <s_i_glide_gridfile>
3POX-grid

> <i_i_glide_lignum>
2

> <i_i_glide_rotatable_bonds>
8

> <r_i_docking_score>
-4.6053892074706

> <r_i_glide_ligand_efficiency>
-0.158806524395538

> <r_i_glide_ligand_efficiency_sa>
-0.487903956381462

> <r_i_glide_ligand_efficiency_ln>
-1.05451734591674

> <r_i_glide_gscore>
-4.6053892074706

> <r_i_glide_lipo>
-0.157916384563793

> <r_i_glide_hbond>
-0.682350693260399

> <r_i_glide_metal>
0

> <r_i_glide_rewards>
-0.316184481789526

> <r_i_glide_evdw>
-31.6483039855957

> <r_i_glide_ecoul>
-11.2063188552856

> <r_i_glide_erotb>
0.585623573400065

> <r_i_glide_esite>
-0.771198193684312

> <r_i_glide_emodel>
-67.0040976018198

> <r_i_glide_energy>
-42.8546228408813

> <r_i_glide_einternal>
2.98973870277405

> <i_i_glide_confnum>
27

> <i_i_glide_posenum>
74

> <r_i_glide_eff_state_penalty>
0

> <r_glide_res:A132_vdw>
-2.50038436419804

> <r_glide_res:A132_coul>
-35.4044496917293

> <r_glide_res:A132_hbond>
-0.16

> <r_glide_res:A132_dist>
1.84178564292175

> <r_glide_res:A132_Eint>
-38.0648340559274

> <r_glide_res:A117_vdw>
-4.27726515310564

> <r_glide_res:A117_coul>
24.2883002203109

> <r_glide_res:A117_hbond>
0

> <r_glide_res:A117_dist>
2.50661659183297

> <r_glide_res:A117_Eint>
20.0110350672053

> <r_glide_res:A113_vdw>
-2.31737851628371

> <r_glide_res:A113_coul>
15.1864657442814

> <r_glide_res:A113_hbond>
0

> <r_glide_res:A113_dist>
2.28191403173332

> <r_glide_res:A113_Eint>
12.8690872279977

> <r_glide_res:A82_vdw>
-0.548059861226215

> <r_glide_res:A82_coul>
-41.0716646377518

> <r_glide_res:A82_hbond>
-0.16

> <r_glide_res:A82_dist>
1.8754264356156

> <r_glide_res:A82_Eint>
-41.779724498978

> <r_glide_res:A42_vdw>
1.28500633884001

> <r_glide_res:A42_coul>
-55.4333123563299

> <r_glide_res:A42_hbond>
-0.362350693260399

> <r_glide_res:A42_dist>
1.84568143513056

> <r_glide_res:A42_Eint>
-54.5106567107503

> <r_glide_res:A16_vdw>
-1.5061558484673

> <r_glide_res:A16_coul>
-46.3330655745133

> <r_glide_res:A16_hbond>
0

> <r_glide_res:A16_dist>
2.57356606400252

> <r_glide_res:A16_Eint>
-47.8392214229806

> <s_m_source_file>
ligprep_Nicaido_neutral.maegz

> <i_m_source_file_index>
2

> <i_lp_mmshare_version>
58128

> <i_f3d_flags>
0

> <s_lp_Force_Field>
S-OPLS

> <r_lp_Energy>
37.420105

> <b_lp_Chiralities_Consistent>
1

> <s_lp_Variant>
Cefazolin-1

> <s_epik_input>
W0NIM11jMW5uYyhzMSlTW0NIMl1DKD1DMkMoPU8pW09IXSlbQ0gyXVNbQ0BIXShOMjMpW0NASF0oQzM9TylbTkhdQyg9TylbQ0gyXW40W2NIXW5ubjQ=

> <s_epik_cmdline>
J2VwaWtfcHl0aG9uJywgJy1waHQnLCAnMC4wJywgJy1waCcsICc3LjQnLCAnLW50JywgJy1tYScsICc1MDAnLCAnLWltYWUnLCAnPGluZmlsZS5tYWU+JywgJy1vbWFlJywgJzxvdXRmaWxlLm1hZT4n

> <r_lp_tautomer_probability>
1

> <r_epik_Ionization_Penalty>
  0.0000

> <r_epik_Ionization_Penalty_Charging>
  0.0000

> <r_epik_Ionization_Penalty_Neutral>
  0.0000

> <r_epik_State_Penalty>
  0.0000

> <r_epik_Charging_Adjusted_Penalty>
8.33047029083912e-06

> <i_epik_Tot_Q>
-1

> <i_epik_Tot_abs_Q>
1

> <s_epik_Chemistry_Notes>
This compound contains an acetal/aminal-like group ( X-CH(R)-Y where X, Y are N, S, or O) that may be acid/base labile, releasing an aldehyde.

> <s_m_subgroup_title>
glide-dock_Nicaido_neutral_pv1

> <s_m_subgroupid>
glide-dock_Nicaido_neutral_pv1

> <b_m_subgroup_collapsed>
0

$$$$
Ampicillin
                    3D
 Schrodinger Suite 2022-2.
 42 44  0  0  1  0            999 V2000
  -29.2926  -20.4400  -21.5168 C   0  0  0  0  0  0
  -27.9081  -20.9440  -21.0644 C   0  0  0  0  0  0
  -27.2948  -22.0516  -21.9757 C   0  0  2  0  0  0
  -26.6616  -21.3112  -23.0354 N   0  0  0  0  0  0
  -25.8652  -20.1369  -22.7574 C   0  0  2  0  0  0
  -26.7211  -19.5496  -21.2459 S   0  0  0  0  0  0
  -26.1435  -19.6757  -24.1976 C   0  0  2  0  0  0
  -26.9280  -20.9908  -24.3464 C   0  0  0  0  0  0
  -27.5689  -21.5496  -25.2134 O   0  0  0  0  0  0
  -24.9138  -19.5496  -24.9959 N   0  0  0  0  0  0
  -24.0473  -20.5056  -25.4038 C   0  0  0  0  0  0
  -22.7582  -20.0708  -26.1336 C   0  0  2  0  0  0
  -21.6377  -20.5238  -25.2557 C   0  0  0  0  0  0
  -21.3009  -19.8447  -24.0578 C   0  0  0  0  0  0
  -20.2232  -20.2636  -23.2544 C   0  0  0  0  0  0
  -19.4532  -21.3764  -23.6358 C   0  0  0  0  0  0
  -19.7692  -22.0677  -24.8186 C   0  0  0  0  0  0
  -20.8513  -21.6434  -25.6135 C   0  0  0  0  0  0
  -22.6525  -18.6449  -26.4134 N   0  0  0  0  0  0
  -24.2359  -21.7109  -25.2214 O   0  0  0  0  0  0
  -28.1369  -23.2375  -22.4708 C   0  0  0  0  0  0
  -27.5691  -24.3496  -22.4131 O   0  5  0  0  0  0
  -29.2581  -23.0635  -22.9922 O   0  0  0  0  0  0
  -27.9689  -21.3909  -19.5935 C   0  0  0  0  0  0
  -30.0653  -21.1936  -21.3645 H   0  0  0  0  0  0
  -29.5920  -19.5630  -20.9408 H   0  0  0  0  0  0
  -29.2983  -20.1587  -22.5697 H   0  0  0  0  0  0
  -26.4618  -22.4894  -21.4232 H   0  0  0  0  0  0
  -24.8199  -20.3727  -22.5496 H   0  0  0  0  0  0
  -26.7626  -18.7777  -24.2223 H   0  0  0  0  0  0
  -24.6954  -18.5768  -25.2134 H   0  0  0  0  0  0
  -22.7364  -20.5965  -27.0895 H   0  0  0  0  0  0
  -21.8761  -18.9828  -23.7493 H   0  0  0  0  0  0
  -19.9858  -19.7248  -22.3487 H   0  0  0  0  0  0
  -18.6211  -21.6943  -23.0249 H   0  0  0  0  0  0
  -19.1778  -22.9185  -25.1225 H   0  0  0  0  0  0
  -21.0761  -22.1825  -26.5220 H   0  0  0  0  0  0
  -23.4855  -18.1144  -26.1673 H   0  0  0  0  0  0
  -21.8976  -18.2249  -25.8900 H   0  0  0  0  0  0
  -28.6490  -22.2335  -19.4640 H   0  0  0  0  0  0
  -26.9890  -21.6879  -19.2202 H   0  0  0  0  0  0
  -28.3317  -20.5835  -18.9548 H   0  0  0  0  0  0
  1  2  1  0  0  0
  1 25  1  0  0  0
  1 26  1  0  0  0
  1 27  1  0  0  0
  2  6  1  0  0  0
  2  3  1  0  0  0
  2 24  1  0  0  0
  3  4  1  0  0  0
  3 21  1  0  0  0
  3 28  1  0  0  0
  4  8  1  0  0  0
  4  5  1  0  0  0
  5  6  1  0  0  0
  5  7  1  0  0  0
  5 29  1  0  0  0
  7  8  1  0  0  0
  7 10  1  0  0  0
  7 30  1  0  0  0
  8  9  2  0  0  0
 10 11  1  0  0  0
 10 31  1  0  0  0
 11 12  1  0  0  0
 11 20  2  0  0  0
 12 13  1  0  0  0
 12 19  1  0  0  0
 12 32  1  0  0  0
 13 18  1  0  0  0
 13 14  2  0  0  0
 14 15  1  0  0  0
 14 33  1  0  0  0
 15 16  2  0  0  0
 15 34  1  0  0  0
 16 17  1  0  0  0
 16 35  1  0  0  0
 17 18  2  0  0  0
 17 36  1  0  0  0
 18 37  1  0  0  0
 19 38  1  0  0  0
 19 39  1  0  0  0
 21 22  1  0  0  0
 21 23  2  0  0  0
 24 40  1  0  0  0
 24 41  1  0  0  0
 24 42  1  0  0  0
M  CHG  1  22  -1
M  END
> <s_m_entry_id>
27568

> <s_m_entry_name>
data_maestro.18

> <s_m_Source_Path>
C:\Users\olshana1\Git\GramNeg-Accumulation\Gram Negative Permeation - OmpF

> <s_m_Source_File>
data_maestro.csv

> <i_m_Source_File_Index>
18

> <s_m_job_name>
glide-dock_Nicaido_neutral

> <s_i_glide_gridfile>
3POX-grid

> <i_i_glide_lignum>
23

> <i_i_glide_rotatable_bonds>
5

> <r_i_docking_score>
-4.5989410526408

> <r_i_glide_ligand_efficiency>
-0.191622543860033

> <r_i_glide_ligand_efficiency_sa>
-0.55273506250115

> <r_i_glide_ligand_efficiency_ln>
-1.10073762555084

> <r_i_glide_gscore>
-4.7048410526408

> <r_i_glide_lipo>
-0.0127913841368371

> <r_i_glide_hbond>
-0.653674693017371

> <r_i_glide_metal>
0

> <r_i_glide_rewards>
-1.03327168474387

> <r_i_glide_evdw>
-23.4537754058838

> <r_i_glide_ecoul>
-12.5876693725586

> <r_i_glide_erotb>
0.470487855572594

> <r_i_glide_esite>
-0.414751970137329

> <r_i_glide_emodel>
-54.8705870906065

> <r_i_glide_energy>
-36.0414447784424

> <r_i_glide_einternal>
6.1437029838562

> <i_i_glide_confnum>
7

> <i_i_glide_posenum>
67

> <r_i_glide_eff_state_penalty>
0.1059

> <r_glide_res:A132_vdw>
-0.864855643286934

> <r_glide_res:A132_coul>
-39.4787518881877

> <r_glide_res:A132_hbond>
-0.00799591561705922

> <r_glide_res:A132_dist>
2.43390270113267

> <r_glide_res:A132_Eint>
-40.3516034470917

> <r_glide_res:A117_vdw>
-1.98942686065286

> <r_glide_res:A117_coul>
4.08123425012838

> <r_glide_res:A117_hbond>
-0.304

> <r_glide_res:A117_dist>
1.76455791404726

> <r_glide_res:A117_Eint>
1.78780738947552

> <r_glide_res:A113_vdw>
-2.10955696831484

> <r_glide_res:A113_coul>
26.0279256455236

> <r_glide_res:A113_hbond>
0

> <r_glide_res:A113_dist>
2.64432829993699

> <r_glide_res:A113_Eint>
23.9183686772088

> <r_glide_res:A82_vdw>
3.09338895372887

> <r_glide_res:A82_coul>
-56.5155223522263

> <r_glide_res:A82_hbond>
-0.189678777400312

> <r_glide_res:A82_dist>
1.57935755480062

> <r_glide_res:A82_Eint>
-53.6118121758977

> <r_glide_res:A42_vdw>
-1.33185440986538

> <r_glide_res:A42_coul>
-42.9917831578781

> <r_glide_res:A42_hbond>
-0.152

> <r_glide_res:A42_dist>
1.87890179200297

> <r_glide_res:A42_Eint>
-44.4756375677435

> <r_glide_res:A16_vdw>
-0.293399644105837

> <r_glide_res:A16_coul>
-25.7319803259493

> <r_glide_res:A16_hbond>
0

> <r_glide_res:A16_dist>
4.00196603914436

> <r_glide_res:A16_Eint>
-26.0253799700551

> <s_m_source_file>
ligprep_Nicaido_neutral.maegz

> <i_m_source_file_index>
18

> <i_lp_mmshare_version>
58128

> <i_f3d_flags>
0

> <s_lp_Force_Field>
S-OPLS

> <r_lp_Energy>
33.736216

> <b_lp_Chiralities_Consistent>
1

> <s_lp_Variant>
Ampicillin-1

> <s_epik_input>
W09IXUMoPU8pW0NAQEhdMUMoW0NIM10pKFtDSDNdKVNbQ0BASF0oTjEyKVtDQEhdKEMyPU8pW05IXUMoPU8pW0NAQEhdKFtOSDJdKWMzW2NIXVtjSF1bY0hdW2NIXVtjSF0z

> <s_epik_cmdline>
J2VwaWtfcHl0aG9uJywgJy1waHQnLCAnMC4wJywgJy1waCcsICc3LjQnLCAnLW50JywgJy1tYScsICc1MDAnLCAnLWltYWUnLCAnPGluZmlsZS5tYWU+JywgJy1vbWFlJywgJzxvdXRmaWxlLm1hZT4n

> <r_epik_Ionization_Penalty>
  0.1060

> <r_epik_Ionization_Penalty_Charging>
  0.0000

> <r_epik_Ionization_Penalty_Neutral>
  0.1059

> <r_epik_State_Penalty>
  0.1059

> <r_epik_Charging_Adjusted_Penalty>
0.105949346496876

> <i_epik_Tot_Q>
-1

> <i_epik_Tot_abs_Q>
1

> <s_epik_Chemistry_Notes>
This compound contains an acetal/aminal-like group ( X-CH(R)-Y where X, Y are N, S, or O) that may be acid/base labile, releasing an aldehyde.

> <s_m_subgroup_title>
glide-dock_Nicaido_neutral_pv1

> <s_m_subgroupid>
glide-dock_Nicaido_neutral_pv1

> <b_m_subgroup_collapsed>
0

$$$$
Cefaclor
                    3D
 Schrodinger Suite 2022-2.
 37 39  0  0  1  0            999 V2000
  -28.7837  -23.9494  -20.0580 O   0  0  0  0  0  0
  -28.5347  -22.7619  -20.0731 C   0  0  0  0  0  0
  -27.9891  -21.7039  -19.0817 C   0  0  2  0  0  0
  -27.5714  -20.9357  -20.3469 C   0  0  1  0  0  0
  -28.4972  -21.8000  -21.0744 N   0  0  0  0  0  0
  -28.5675  -21.6454  -22.4717 C   0  0  0  0  0  0
  -28.2631  -22.8990  -23.3906 C   0  0  0  0  0  0
  -27.8864  -23.9495  -22.8134 O   0  5  0  0  0  0
  -28.3700  -22.7681  -24.6338 O   0  0  0  0  0  0
  -28.8465  -20.3936  -22.9083 C   0  0  0  0  0  0
  -29.1678  -19.2513  -21.9542 C   0  0  0  0  0  0
  -27.9684  -19.1626  -20.5912 S   0  0  0  0  0  0
  -28.9468  -19.8811  -24.5609 Cl  0  0  0  0  0  0
  -26.8494  -22.1284  -18.2506 N   0  0  0  0  0  0
  -25.8084  -22.9154  -18.5912 C   0  0  0  0  0  0
  -24.8072  -23.2559  -17.4821 C   0  0  2  0  0  0
  -23.7124  -22.2508  -17.5851 C   0  0  0  0  0  0
  -22.6541  -22.3672  -18.5185 C   0  0  0  0  0  0
  -21.6398  -21.3936  -18.6025 C   0  0  0  0  0  0
  -21.6625  -20.2778  -17.7468 C   0  0  0  0  0  0
  -22.7023  -20.1424  -16.8106 C   0  0  0  0  0  0
  -23.7110  -21.1215  -16.7355 C   0  0  0  0  0  0
  -24.3684  -24.6444  -17.6122 N   0  0  0  0  0  0
  -25.6501  -23.4154  -19.7096 O   0  0  0  0  0  0
  -28.7655  -21.1810  -18.5180 H   0  0  0  0  0  0
  -26.5445  -21.1259  -20.6670 H   0  0  0  0  0  0
  -29.1923  -18.2921  -22.4717 H   0  0  0  0  0  0
  -30.1598  -19.4174  -21.5321 H   0  0  0  0  0  0
  -26.8708  -21.7903  -17.2977 H   0  0  0  0  0  0
  -25.3014  -23.1493  -16.5149 H   0  0  0  0  0  0
  -22.6245  -23.2144  -19.1876 H   0  0  0  0  0  0
  -20.8458  -21.5005  -19.3262 H   0  0  0  0  0  0
  -20.8896  -19.5262  -17.8096 H   0  0  0  0  0  0
  -22.7304  -19.2852  -16.1538 H   0  0  0  0  0  0
  -24.5049  -21.0011  -16.0133 H   0  0  0  0  0  0
  -24.8781  -25.1888  -16.9275 H   0  0  0  0  0  0
  -24.6837  -24.9773  -18.5130 H   0  0  0  0  0  0
  1  2  2  0  0  0
  2  5  1  0  0  0
  2  3  1  0  0  0
  3  4  1  0  0  0
  3 14  1  0  0  0
  3 25  1  0  0  0
  4 12  1  0  0  0
  4  5  1  0  0  0
  4 26  1  0  0  0
  5  6  1  0  0  0
  6  7  1  0  0  0
  6 10  2  0  0  0
  7  8  1  0  0  0
  7  9  2  0  0  0
 10 11  1  0  0  0
 10 13  1  0  0  0
 11 12  1  0  0  0
 11 27  1  0  0  0
 11 28  1  0  0  0
 14 15  1  0  0  0
 14 29  1  0  0  0
 15 16  1  0  0  0
 15 24  2  0  0  0
 16 17  1  0  0  0
 16 23  1  0  0  0
 16 30  1  0  0  0
 17 22  1  0  0  0
 17 18  2  0  0  0
 18 19  1  0  0  0
 18 31  1  0  0  0
 19 20  2  0  0  0
 19 32  1  0  0  0
 20 21  1  0  0  0
 20 33  1  0  0  0
 21 22  2  0  0  0
 21 34  1  0  0  0
 22 35  1  0  0  0
 23 36  1  0  0  0
 23 37  1  0  0  0
M  CHG  1   8  -1
M  END
> <s_m_entry_id>
27569

> <s_m_entry_name>
data_maestro.15

> <s_m_Source_Path>
C:\Users\olshana1\Git\GramNeg-Accumulation\Gram Negative Permeation - OmpF

> <s_m_Source_File>
data_maestro.csv

> <i_m_Source_File_Index>
15

> <s_m_job_name>
glide-dock_Nicaido_neutral

> <s_i_glide_gridfile>
3POX-grid

> <i_i_glide_lignum>
20

> <i_i_glide_rotatable_bonds>
5

> <r_i_docking_score>
-4.59631937268675

> <r_i_glide_ligand_efficiency>
-0.191513307195281

> <r_i_glide_ligand_efficiency_sa>
-0.552419969435884

> <r_i_glide_ligand_efficiency_ln>
-1.10011013723678

> <r_i_glide_gscore>
-4.71271937268675

> <r_i_glide_lipo>
0

> <r_i_glide_hbond>
-0.831624985041216

> <r_i_glide_metal>
0

> <r_i_glide_rewards>
-0.908180995595978

> <r_i_glide_evdw>
-25.3975734710693

> <r_i_glide_ecoul>
-11.5554914474487

> <r_i_glide_erotb>
0.429266414571003

> <r_i_glide_esite>
-0.398977415949784

> <r_i_glide_emodel>
-56.5265908342875

> <r_i_glide_energy>
-36.9530649185181

> <r_i_glide_einternal>
4.91484928131104

> <i_i_glide_confnum>
17

> <i_i_glide_posenum>
310

> <r_i_glide_eff_state_penalty>
0.1164

> <r_glide_res:A132_vdw>
-1.73807319204107

> <r_glide_res:A132_coul>
-42.5325329576698

> <r_glide_res:A132_hbond>
-0.16

> <r_glide_res:A132_dist>
1.88608046072164

> <r_glide_res:A132_Eint>
-44.4306061497109

> <r_glide_res:A117_vdw>
-1.67786432326202

> <r_glide_res:A117_coul>
24.644360085179

> <r_glide_res:A117_hbond>
0

> <r_glide_res:A117_dist>
2.47019320879131

> <r_glide_res:A117_Eint>
22.966495761917

> <r_glide_res:A113_vdw>
-3.64299283047928

> <r_glide_res:A113_coul>
19.1833776852864

> <r_glide_res:A113_hbond>
0

> <r_glide_res:A113_dist>
2.49328090439648

> <r_glide_res:A113_Eint>
15.5403848548071

> <r_glide_res:A82_vdw>
1.13853560890976

> <r_glide_res:A82_coul>
-51.3277052251182

> <r_glide_res:A82_hbond>
-0.212392541526477

> <r_glide_res:A82_dist>
1.70246544507839

> <r_glide_res:A82_Eint>
-50.4015621577349

> <r_glide_res:A42_vdw>
-0.872802308793827

> <r_glide_res:A42_coul>
-44.9042639638024

> <r_glide_res:A42_hbond>
-0.249741952573791

> <r_glide_res:A42_dist>
2.16413076793674

> <r_glide_res:A42_Eint>
-46.02680822517

> <r_glide_res:A16_vdw>
-0.241501726058683

> <r_glide_res:A16_coul>
-27.4279851148878

> <r_glide_res:A16_hbond>
0

> <r_glide_res:A16_dist>
4.01409588620395

> <r_glide_res:A16_Eint>
-27.6694868409465

> <s_m_source_file>
ligprep_Nicaido_neutral.maegz

> <i_m_source_file_index>
15

> <i_lp_mmshare_version>
58128

> <i_f3d_flags>
0

> <s_lp_Force_Field>
S-OPLS

> <r_lp_Energy>
48.098991

> <b_lp_Chiralities_Consistent>
1

> <s_lp_Variant>
Cefaclor-1

> <s_epik_input>
UzFbQ0gyXUMoQ2wpPUMoQyg9TylbT0hdKU4oW0NAQEhdMTIpQyg9TylbQ0BIXTJbTkhdQyg9TylbQ0BASF0oW05IMl0pYzNbY0hdW2NIXVtjSF1bY0hdW2NIXTM=

> <s_epik_cmdline>
J2VwaWtfcHl0aG9uJywgJy1waHQnLCAnMC4wJywgJy1waCcsICc3LjQnLCAnLW50JywgJy1tYScsICc1MDAnLCAnLWltYWUnLCAnPGluZmlsZS5tYWU+JywgJy1vbWFlJywgJzxvdXRmaWxlLm1hZT4n

> <r_epik_Ionization_Penalty>
  0.1164

> <r_epik_Ionization_Penalty_Charging>
  0.0000

> <r_epik_Ionization_Penalty_Neutral>
  0.1164

> <r_epik_State_Penalty>
  0.1164

> <r_epik_Charging_Adjusted_Penalty>
0.116403072965043

> <i_epik_Tot_Q>
-1

> <i_epik_Tot_abs_Q>
1

> <s_epik_Chemistry_Notes>
This compound contains an acetal/aminal-like group ( X-CH(R)-Y where X, Y are N, S, or O) that may be acid/base labile, releasing an aldehyde.

> <s_m_subgroup_title>
glide-dock_Nicaido_neutral_pv1

> <s_m_subgroupid>
glide-dock_Nicaido_neutral_pv1

> <b_m_subgroup_collapsed>
0

$$$$
Aztreonam
                    3D
 Schrodinger Suite 2022-2.
 43 44  0  0  1  0            999 V2000
  -21.6822  -22.2698  -17.5482 C   0  0  0  0  0  0
  -22.4560  -23.5597  -17.2280 C   0  0  1  0  0  0
  -23.7888  -23.9048  -17.9356 C   0  0  2  0  0  0
  -22.9112  -24.7649  -18.8778 C   0  0  0  0  0  0
  -21.9084  -24.7145  -17.9286 N   0  0  0  0  0  0
  -20.3200  -25.2001  -17.7612 S   0  0  0  0  0  0
  -19.6015  -24.5278  -18.8519 O   0  0  0  0  0  0
  -20.3689  -26.6650  -17.9087 O   0  5  0  0  0  0
  -19.9285  -24.7496  -16.4136 O   0  0  0  0  0  0
  -22.9928  -25.2673  -19.9795 O   0  0  0  0  0  0
  -24.3824  -22.7229  -18.5501 N   0  0  0  0  0  0
  -25.3476  -22.6756  -19.4800 C   0  0  0  0  0  0
  -25.7382  -21.2398  -19.9350 C   0  0  0  0  0  0
  -25.1605  -20.0529  -19.1813 C   0  0  0  0  0  0
  -25.3487  -18.7669  -19.6557 C   0  0  0  0  0  0
  -24.5611  -17.5495  -18.6845 S   0  0  0  0  0  0
  -23.9908  -18.8218  -17.6331 C   0  0  0  0  0  0
  -23.1689  -18.5638  -16.5509 N   0  0  0  0  0  0
  -24.3867  -20.0386  -18.0026 N   0  0  0  0  0  0
  -26.4987  -20.9679  -20.9289 N   0  0  0  0  0  0
  -26.9220  -22.0572  -21.7156 O   0  0  0  0  0  0
  -27.8542  -21.6238  -22.7221 C   0  0  0  0  0  0
  -28.2330  -22.8622  -23.5689 C   0  0  0  0  0  0
  -28.3692  -23.9496  -22.9597 O   0  5  0  0  0  0
  -28.3657  -22.7496  -24.8134 O   0  0  0  0  0  0
  -29.1473  -21.1105  -22.0474 C   0  0  0  0  0  0
  -27.2276  -20.5334  -23.6329 C   0  0  0  0  0  0
  -25.8560  -23.7074  -19.9342 O   0  0  0  0  0  0
  -22.1398  -21.4097  -17.0609 H   0  0  0  0  0  0
  -20.6529  -22.3160  -17.1927 H   0  0  0  0  0  0
  -21.6465  -22.0620  -18.6185 H   0  0  0  0  0  0
  -22.5056  -23.7597  -16.1568 H   0  0  0  0  0  0
  -24.4765  -24.4660  -17.2998 H   0  0  0  0  0  0
  -24.0561  -21.8249  -18.2062 H   0  0  0  0  0  0
  -25.9066  -18.4525  -20.5278 H   0  0  0  0  0  0
  -23.0367  -19.2974  -15.8717 H   0  0  0  0  0  0
  -23.1691  -17.6307  -16.1522 H   0  0  0  0  0  0
  -29.9209  -20.8898  -22.7836 H   0  0  0  0  0  0
  -29.5516  -21.8475  -21.3518 H   0  0  0  0  0  0
  -28.9767  -20.1935  -21.4823 H   0  0  0  0  0  0
  -27.8988  -20.2490  -24.4442 H   0  0  0  0  0  0
  -27.0101  -19.6153  -23.0861 H   0  0  0  0  0  0
  -26.2940  -20.8788  -24.0773 H   0  0  0  0  0  0
  1  2  1  0  0  0
  1 29  1  0  0  0
  1 30  1  0  0  0
  1 31  1  0  0  0
  2  5  1  0  0  0
  2  3  1  0  0  0
  2 32  1  0  0  0
  3  4  1  0  0  0
  3 11  1  0  0  0
  3 33  1  0  0  0
  4  5  1  0  0  0
  4 10  2  0  0  0
  5  6  1  0  0  0
  6  7  2  0  0  0
  6  8  1  0  0  0
  6  9  2  0  0  0
 11 12  1  0  0  0
 11 34  1  0  0  0
 12 13  1  0  0  0
 12 28  2  0  0  0
 13 14  1  0  0  0
 13 20  2  3  0  0
 14 19  1  0  0  0
 14 15  2  0  0  0
 15 16  1  0  0  0
 15 35  1  0  0  0
 16 17  1  0  0  0
 17 18  1  0  0  0
 17 19  2  0  0  0
 18 36  1  0  0  0
 18 37  1  0  0  0
 20 21  1  0  0  0
 21 22  1  0  0  0
 22 23  1  0  0  0
 22 26  1  0  0  0
 22 27  1  0  0  0
 23 24  1  0  0  0
 23 25  2  0  0  0
 26 38  1  0  0  0
 26 39  1  0  0  0
 26 40  1  0  0  0
 27 41  1  0  0  0
 27 42  1  0  0  0
 27 43  1  0  0  0
M  CHG  2   8  -1  24  -1
M  END
> <s_m_entry_id>
27570

> <s_m_entry_name>
data_maestro.21

> <s_m_Source_Path>
C:\Users\olshana1\Git\GramNeg-Accumulation\Gram Negative Permeation - OmpF

> <s_m_Source_File>
data_maestro.csv

> <i_m_Source_File_Index>
21

> <s_m_job_name>
glide-dock_Nicaido_neutral

> <s_i_glide_gridfile>
3POX-grid

> <i_i_glide_lignum>
27

> <i_i_glide_rotatable_bonds>
8

> <r_i_docking_score>
-4.596138904226

> <r_i_glide_ligand_efficiency>
-0.164147818008071

> <r_i_glide_ligand_efficiency_sa>
-0.498449453367118

> <r_i_glide_ligand_efficiency_ln>
-1.06092380759747

> <r_i_glide_gscore>
-4.596138904226

> <r_i_glide_lipo>
-0.226876187753614

> <r_i_glide_hbond>
-0.976085391429706

> <r_i_glide_metal>
0

> <r_i_glide_rewards>
-0.453821072299013

> <r_i_glide_evdw>
-26.1453685760498

> <r_i_glide_ecoul>
-11.187105178833

> <r_i_glide_erotb>
0.635830109179744

> <r_i_glide_esite>
-0.58985215629597

> <r_i_glide_emodel>
-63.7495067896572

> <r_i_glide_energy>
-37.3324737548828

> <r_i_glide_einternal>
3.41208100318909

> <i_i_glide_confnum>
71

> <i_i_glide_posenum>
47

> <r_i_glide_eff_state_penalty>
0

> <r_glide_res:A132_vdw>
-2.32456101393059

> <r_glide_res:A132_coul>
-63.0652238531228

> <r_glide_res:A132_hbond>
-0.103392162050884

> <r_glide_res:A132_dist>
2.24151959487279

> <r_glide_res:A132_Eint>
-65.4931770291042

> <r_glide_res:A117_vdw>
-1.83655822378885

> <r_glide_res:A117_coul>
34.9022254978765

> <r_glide_res:A117_hbond>
0

> <r_glide_res:A117_dist>
2.92396657431435

> <r_glide_res:A117_Eint>
33.0656672740877

> <r_glide_res:A113_vdw>
-1.1512046939409

> <r_glide_res:A113_coul>
38.7938477838682

> <r_glide_res:A113_hbond>
0

> <r_glide_res:A113_dist>
3.42507640298445

> <r_glide_res:A113_Eint>
37.6426430899273

> <r_glide_res:A82_vdw>
0.439166997335061

> <r_glide_res:A82_coul>
-70.373303429619

> <r_glide_res:A82_hbond>
-0.307759306123229

> <r_glide_res:A82_dist>
1.89238036679743

> <r_glide_res:A82_Eint>
-70.2418957384071

> <r_glide_res:A42_vdw>
-0.201960910081534

> <r_glide_res:A42_coul>
-63.1943590759555

> <r_glide_res:A42_hbond>
-0.329669328729428

> <r_glide_res:A42_dist>
2.0412480223864

> <r_glide_res:A42_Eint>
-63.7259893147665

> <r_glide_res:A16_vdw>
-0.192074960759127

> <r_glide_res:A16_coul>
-38.7534034974913

> <r_glide_res:A16_hbond>
0

> <r_glide_res:A16_dist>
4.14344313187879

> <r_glide_res:A16_Eint>
-38.9454784582504

> <s_m_source_file>
ligprep_Nicaido_neutral.maegz

> <i_m_source_file_index>
21

> <i_lp_mmshare_version>
58128

> <i_f3d_flags>
0

> <s_lp_Force_Field>
S-OPLS

> <r_lp_Energy>
50.237147

> <b_lp_Chiralities_Consistent>
1

> <s_lp_Variant>
Aztreonam-2

> <s_epik_input>
Tz1TKD1PKShbT0hdKU4xQyg9TylbQ0BASF0oW0NAQEhdMVtDSDNdKVtOSF1DKD1PKS9DKGMyW2NIXXNjKG4yKVtOSDJdKT1OL09DKFtDSDNdKShbQ0gzXSlDKD1PKVtPSF0=

> <s_epik_cmdline>
J2VwaWtfcHl0aG9uJywgJy1waHQnLCAnMC4wJywgJy1waCcsICc3LjQnLCAnLW50JywgJy1tYScsICc1MDAnLCAnLWltYWUnLCAnPGluZmlsZS5tYWU+JywgJy1vbWFlJywgJzxvdXRmaWxlLm1hZT4n

> <r_lp_tautomer_probability>
1

> <r_epik_Ionization_Penalty>
  0.0004

> <r_epik_Ionization_Penalty_Charging>
  0.0000

> <r_epik_Ionization_Penalty_Neutral>
  0.0004

> <r_epik_State_Penalty>
  0.0000

> <r_epik_Charging_Adjusted_Penalty>
4.45674509427693e-05

> <i_epik_Tot_Q>
-2

> <i_epik_Tot_abs_Q>
2

> <s_epik_Chemistry_Notes>
This compound has an imine and may undergo hydrolysis.

> <s_m_subgroup_title>
glide-dock_Nicaido_neutral_pv1

> <s_m_subgroupid>
glide-dock_Nicaido_neutral_pv1

> <b_m_subgroup_collapsed>
0

$$$$
Carbenicillin
                    3D
 Schrodinger Suite 2022-2.
 42 44  0  0  1  0            999 V2000
  -21.8651  -23.3754  -22.8905 C   0  0  0  0  0  0
  -22.5557  -22.9267  -24.1952 C   0  0  0  0  0  0
  -23.8627  -23.7154  -24.5622 C   0  0  2  0  0  0
  -24.9184  -22.9211  -23.9857 N   0  0  0  0  0  0
  -24.9080  -21.4773  -24.0610 C   0  0  2  0  0  0
  -23.1123  -21.1916  -23.9235 S   0  0  0  0  0  0
  -25.9255  -21.4567  -22.9084 C   0  0  2  0  0  0
  -25.8420  -22.9996  -22.9678 C   0  0  0  0  0  0
  -26.3351  -23.9460  -22.3885 O   0  0  0  0  0  0
  -27.1967  -20.8316  -23.3197 N   0  0  0  0  0  0
  -28.0672  -21.2399  -24.2661 C   0  0  0  0  0  0
  -29.1708  -20.2164  -24.6380 C   0  0  2  0  0  0
  -30.2639  -20.1189  -23.5757 C   0  0  0  0  0  0
  -30.5422  -18.8669  -22.9822 C   0  0  0  0  0  0
  -31.5494  -18.7489  -22.0065 C   0  0  0  0  0  0
  -32.2848  -19.8827  -21.6135 C   0  0  0  0  0  0
  -32.0106  -21.1364  -22.1928 C   0  0  0  0  0  0
  -31.0063  -21.2546  -23.1739 C   0  0  0  0  0  0
  -29.8110  -20.5300  -26.0136 C   0  0  0  0  0  0
  -29.9666  -19.5736  -26.8107 O   0  5  0  0  0  0
  -30.1462  -21.7018  -26.3230 O   0  0  0  0  0  0
  -27.9684  -22.3437  -24.8134 O   0  0  0  0  0  0
  -23.9687  -25.2269  -24.2753 C   0  0  0  0  0  0
  -23.6520  -25.6713  -23.1484 O   0  5  0  0  0  0
  -24.3689  -25.9496  -25.2133 O   0  0  0  0  0  0
  -21.5458  -22.9686  -25.3578 C   0  0  0  0  0  0
  -21.4238  -24.3678  -22.9813 H   0  0  0  0  0  0
  -21.0578  -22.6929  -22.6189 H   0  0  0  0  0  0
  -22.5700  -23.3927  -22.0577 H   0  0  0  0  0  0
  -24.0109  -23.6102  -25.6378 H   0  0  0  0  0  0
  -25.2865  -21.0976  -25.0122 H   0  0  0  0  0  0
  -25.5054  -21.0204  -22.0018 H   0  0  0  0  0  0
  -27.3834  -19.9250  -22.9107 H   0  0  0  0  0  0
  -28.6832  -19.2437  -24.7285 H   0  0  0  0  0  0
  -29.9841  -17.9881  -23.2693 H   0  0  0  0  0  0
  -31.7468  -17.7893  -21.5501 H   0  0  0  0  0  0
  -33.0445  -19.7954  -20.8502 H   0  0  0  0  0  0
  -32.5676  -22.0056  -21.8774 H   0  0  0  0  0  0
  -30.8066  -22.2173  -23.6201 H   0  0  0  0  0  0
  -21.2205  -23.9862  -25.5713 H   0  0  0  0  0  0
  -21.9763  -22.5642  -26.2759 H   0  0  0  0  0  0
  -20.6569  -22.3776  -25.1297 H   0  0  0  0  0  0
  1  2  1  0  0  0
  1 27  1  0  0  0
  1 28  1  0  0  0
  1 29  1  0  0  0
  2  6  1  0  0  0
  2  3  1  0  0  0
  2 26  1  0  0  0
  3  4  1  0  0  0
  3 23  1  0  0  0
  3 30  1  0  0  0
  4  8  1  0  0  0
  4  5  1  0  0  0
  5  6  1  0  0  0
  5  7  1  0  0  0
  5 31  1  0  0  0
  7  8  1  0  0  0
  7 10  1  0  0  0
  7 32  1  0  0  0
  8  9  2  0  0  0
 10 11  1  0  0  0
 10 33  1  0  0  0
 11 12  1  0  0  0
 11 22  2  0  0  0
 12 13  1  0  0  0
 12 19  1  0  0  0
 12 34  1  0  0  0
 13 18  1  0  0  0
 13 14  2  0  0  0
 14 15  1  0  0  0
 14 35  1  0  0  0
 15 16  2  0  0  0
 15 36  1  0  0  0
 16 17  1  0  0  0
 16 37  1  0  0  0
 17 18  2  0  0  0
 17 38  1  0  0  0
 18 39  1  0  0  0
 19 20  1  0  0  0
 19 21  2  0  0  0
 23 24  1  0  0  0
 23 25  2  0  0  0
 26 40  1  0  0  0
 26 41  1  0  0  0
 26 42  1  0  0  0
M  CHG  2  20  -1  24  -1
M  END
> <s_m_entry_id>
27571

> <s_m_entry_name>
data_maestro.24

> <s_m_Source_Path>
C:\Users\olshana1\Git\GramNeg-Accumulation\Gram Negative Permeation - OmpF

> <s_m_Source_File>
data_maestro.csv

> <i_m_Source_File_Index>
24

> <s_m_job_name>
glide-dock_Nicaido_neutral

> <s_i_glide_gridfile>
3POX-grid

> <i_i_glide_lignum>
31

> <i_i_glide_rotatable_bonds>
6

> <r_i_docking_score>
-4.59482520079508

> <r_i_glide_ligand_efficiency>
-0.176724046184426

> <r_i_glide_ligand_efficiency_sa>
-0.523544291445819

> <r_i_glide_ligand_efficiency_ln>
-1.07907962155552

> <r_i_glide_gscore>
-4.59482520079508

> <r_i_glide_lipo>
0

> <r_i_glide_hbond>
-0.927382393675631

> <r_i_glide_metal>
0

> <r_i_glide_rewards>
-0.838812718369115

> <r_i_glide_evdw>
-19.7893962860107

> <r_i_glide_ecoul>
-11.7676753997803

> <r_i_glide_erotb>
0.409918473255716

> <r_i_glide_esite>
-0.483927437738471

> <r_i_glide_emodel>
-54.1716871860761

> <r_i_glide_energy>
-31.557071685791

> <r_i_glide_einternal>
7.22517967224121

> <i_i_glide_confnum>
4

> <i_i_glide_posenum>
315

> <r_i_glide_eff_state_penalty>
0

> <r_glide_res:A132_vdw>
-1.58223178433085

> <r_glide_res:A132_coul>
-58.3166885615331

> <r_glide_res:A132_hbond>
-0.0347410973290265

> <r_glide_res:A132_dist>
2.3428502523112

> <r_glide_res:A132_Eint>
-59.933661443193

> <r_glide_res:A117_vdw>
-2.7478314208924

> <r_glide_res:A117_coul>
42.2923578505014

> <r_glide_res:A117_hbond>
0

> <r_glide_res:A117_dist>
2.96909832513981

> <r_glide_res:A117_Eint>
39.544526429609

> <r_glide_res:A113_vdw>
-2.34743362932301

> <r_glide_res:A113_coul>
36.9379548037209

> <r_glide_res:A113_hbond>
0

> <r_glide_res:A113_dist>
2.44621379811608

> <r_glide_res:A113_Eint>
34.5905211743979

> <r_glide_res:A82_vdw>
-1.37422672380992

> <r_glide_res:A82_coul>
-75.7774595833697

> <r_glide_res:A82_hbond>
-0.358017467991624

> <r_glide_res:A82_dist>
1.9064017480916

> <r_glide_res:A82_Eint>
-77.5097037751712

> <r_glide_res:A42_vdw>
-2.69476868759597

> <r_glide_res:A42_coul>
-75.7300786538821

> <r_glide_res:A42_hbond>
-0.233289746543646

> <r_glide_res:A42_dist>
1.86864745689222

> <r_glide_res:A42_Eint>
-78.6581370880217

> <r_glide_res:A16_vdw>
2.31007306292709

> <r_glide_res:A16_coul>
-79.4110855553853

> <r_glide_res:A16_hbond>
-0.285528064234532

> <r_glide_res:A16_dist>
1.88197136524241

> <r_glide_res:A16_Eint>
-77.3865405566927

> <s_m_source_file>
ligprep_Nicaido_neutral.maegz

> <i_m_source_file_index>
24

> <i_lp_mmshare_version>
58128

> <i_f3d_flags>
0

> <s_lp_Force_Field>
S-OPLS

> <r_lp_Energy>
37.112724

> <b_lp_Chiralities_Consistent>
1

> <s_lp_Variant>
Carbenicillin-1

> <s_epik_input>
W09IXUMoPU8pW0NAQEhdMUMoW0NIM10pKFtDSDNdKVNbQ0BASF0oTjEyKVtDQEhdKEMyPU8pW05IXUMoPU8pW0NAQEhdKEMoPU8pW09IXSljM1tjSF1bY0hdW2NIXVtjSF1bY0hdMw==

> <s_epik_cmdline>
J2VwaWtfcHl0aG9uJywgJy1waHQnLCAnMC4wJywgJy1waCcsICc3LjQnLCAnLW50JywgJy1tYScsICc1MDAnLCAnLWltYWUnLCAnPGluZmlsZS5tYWU+JywgJy1vbWFlJywgJzxvdXRmaWxlLm1hZT4n

> <r_lp_tautomer_probability>
1

> <r_epik_Ionization_Penalty>
  0.0000

> <r_epik_Ionization_Penalty_Charging>
  0.0000

> <r_epik_Ionization_Penalty_Neutral>
  0.0000

> <r_epik_State_Penalty>
  0.0000

> <r_epik_Charging_Adjusted_Penalty>
4.98035685666923e-05

> <i_epik_Tot_Q>
-2

> <i_epik_Tot_abs_Q>
2

> <s_epik_Chemistry_Notes>
This compound contains an acetal/aminal-like group ( X-CH(R)-Y where X, Y are N, S, or O) that may be acid/base labile, releasing an aldehyde.

> <s_m_subgroup_title>
glide-dock_Nicaido_neutral_pv1

> <s_m_subgroupid>
glide-dock_Nicaido_neutral_pv1

> <b_m_subgroup_collapsed>
0

$$$$
Cephalosporin C
                    3D
 Schrodinger Suite 2022-2.
 45 46  0  0  1  0            999 V2000
  -21.2388  -20.4933  -26.9683 O   0  0  0  0  0  0
  -22.0135  -19.5495  -26.8124 C   0  0  0  0  0  0
  -23.2962  -19.6317  -26.4206 O   0  0  0  0  0  0
  -23.8919  -20.8893  -26.1306 C   0  0  0  0  0  0
  -23.9594  -21.1562  -24.6272 C   0  0  0  0  0  0
  -23.6732  -22.3600  -24.0540 C   0  0  0  0  0  0
  -23.6490  -22.5236  -22.6554 N   0  0  0  0  0  0
  -23.5438  -21.4096  -21.7365 C   0  0  2  0  0  0
  -23.5554  -22.4331  -20.5820 C   0  0  2  0  0  0
  -23.7613  -23.5057  -21.6842 C   0  0  0  0  0  0
  -23.9688  -24.6998  -21.7438 O   0  0  0  0  0  0
  -24.6867  -22.2311  -19.6806 N   0  0  0  0  0  0
  -25.1317  -23.1135  -18.7752 C   0  0  0  0  0  0
  -26.3295  -22.6751  -17.9311 C   0  0  0  0  0  0
  -27.6660  -23.0740  -18.5822 C   0  0  0  0  0  0
  -28.1261  -22.0737  -19.6632 C   0  0  0  0  0  0
  -29.2469  -22.6043  -20.5881 C   0  0  2  0  0  0
  -28.7563  -23.5496  -21.7142 C   0  0  0  0  0  0
  -29.6029  -23.9316  -22.5526 O   0  5  0  0  0  0
  -27.5689  -23.9495  -21.7271 O   0  0  0  0  0  0
  -29.9788  -21.4744  -21.1881 N   0  3  0  0  0  0
  -24.6313  -24.2277  -18.6097 O   0  0  0  0  0  0
  -24.8975  -20.2619  -22.1226 S   0  0  0  0  0  0
  -24.3763  -19.9151  -23.8278 C   0  0  0  0  0  0
  -23.2939  -23.6447  -24.8773 C   0  0  0  0  0  0
  -22.3689  -24.3496  -24.4128 O   0  5  0  0  0  0
  -23.9678  -23.8830  -25.9040 O   0  0  0  0  0  0
  -21.7570  -18.5031  -26.9770 H   0  0  0  0  0  0
  -23.3888  -21.6849  -26.6775 H   0  0  0  0  0  0
  -24.9149  -20.8582  -26.5057 H   0  0  0  0  0  0
  -22.5773  -20.9126  -21.8400 H   0  0  0  0  0  0
  -22.5943  -22.4860  -20.0692 H   0  0  0  0  0  0
  -25.1777  -21.3522  -19.7686 H   0  0  0  0  0  0
  -26.2960  -21.6012  -17.7400 H   0  0  0  0  0  0
  -26.2410  -23.1490  -16.9542 H   0  0  0  0  0  0
  -28.4371  -23.1357  -17.8129 H   0  0  0  0  0  0
  -27.5835  -24.0801  -18.9938 H   0  0  0  0  0  0
  -27.2856  -21.7417  -20.2728 H   0  0  0  0  0  0
  -28.4739  -21.1754  -19.1487 H   0  0  0  0  0  0
  -29.9705  -23.1527  -19.9839 H   0  0  0  0  0  0
  -30.7185  -21.8422  -21.7683 H   0  0  0  0  0  0
  -30.3698  -20.9056  -20.4446 H   0  0  0  0  0  0
  -23.5403  -19.2150  -23.8039 H   0  0  0  0  0  0
  -25.1968  -19.4062  -24.3357 H   0  0  0  0  0  0
  -29.3473  -20.9203  -21.7468 H   0  0  0  0  0  0
  1  2  2  0  0  0
  2  3  1  0  0  0
  2 28  1  0  0  0
  3  4  1  0  0  0
  4  5  1  0  0  0
  4 29  1  0  0  0
  4 30  1  0  0  0
  5 24  1  0  0  0
  5  6  2  0  0  0
  6  7  1  0  0  0
  6 25  1  0  0  0
  7 10  1  0  0  0
  7  8  1  0  0  0
  8  9  1  0  0  0
  8 23  1  0  0  0
  8 31  1  0  0  0
  9 10  1  0  0  0
  9 12  1  0  0  0
  9 32  1  0  0  0
 10 11  2  0  0  0
 12 13  1  0  0  0
 12 33  1  0  0  0
 13 14  1  0  0  0
 13 22  2  0  0  0
 14 15  1  0  0  0
 14 34  1  0  0  0
 14 35  1  0  0  0
 15 16  1  0  0  0
 15 36  1  0  0  0
 15 37  1  0  0  0
 16 17  1  0  0  0
 16 38  1  0  0  0
 16 39  1  0  0  0
 17 18  1  0  0  0
 17 21  1  0  0  0
 17 40  1  0  0  0
 18 19  1  0  0  0
 18 20  2  0  0  0
 21 41  1  0  0  0
 21 42  1  0  0  0
 21 45  1  0  0  0
 23 24  1  0  0  0
 24 43  1  0  0  0
 24 44  1  0  0  0
 25 26  1  0  0  0
 25 27  2  0  0  0
M  CHG  3  19  -1  21   1  26  -1
M  END
> <s_m_entry_id>
27572

> <s_m_entry_name>
data_maestro.25

> <s_m_Source_Path>
C:\Users\olshana1\Git\GramNeg-Accumulation\Gram Negative Permeation - OmpF

> <s_m_Source_File>
data_maestro.csv

> <i_m_Source_File_Index>
25

> <s_m_job_name>
glide-dock_Nicaido_neutral

> <s_i_glide_gridfile>
3POX-grid

> <i_i_glide_lignum>
32

> <i_i_glide_rotatable_bonds>
11

> <r_i_docking_score>
-4.59463386986889

> <r_i_glide_ligand_efficiency>
-0.170171624809959

> <r_i_glide_ligand_efficiency_sa>
-0.510514873869018

> <r_i_glide_ligand_efficiency_ln>
-1.06955501644607

> <r_i_glide_gscore>
-4.59463386986889

> <r_i_glide_lipo>
0

> <r_i_glide_hbond>
-0.851165553789792

> <r_i_glide_metal>
0

> <r_i_glide_rewards>
-0.869224279312661

> <r_i_glide_evdw>
-24.4012317657471

> <r_i_glide_ecoul>
-14.7557697296143

> <r_i_glide_erotb>
0.97830559423054

> <r_i_glide_esite>
-0.419122583267482

> <r_i_glide_emodel>
-66.4213853627615

> <r_i_glide_energy>
-39.1570014953613

> <r_i_glide_einternal>
5.48163890838623

> <i_i_glide_confnum>
71

> <i_i_glide_posenum>
28

> <r_i_glide_eff_state_penalty>
0

> <r_glide_res:A132_vdw>
-1.3432001468845

> <r_glide_res:A132_coul>
-48.7107895005542

> <r_glide_res:A132_hbond>
-0.0923348661152117

> <r_glide_res:A132_dist>
2.23752971731049

> <r_glide_res:A132_Eint>
-50.1463245135539

> <r_glide_res:A117_vdw>
-2.5493320415328

> <r_glide_res:A117_coul>
15.6944497119896

> <r_glide_res:A117_hbond>
0

> <r_glide_res:A117_dist>
2.83873783790412

> <r_glide_res:A117_Eint>
13.1451176704568

> <r_glide_res:A113_vdw>
-2.24377738978481

> <r_glide_res:A113_coul>
-10.6365741912622

> <r_glide_res:A113_hbond>
-0.187216777203252

> <r_glide_res:A113_dist>
2.1255664455935

> <r_glide_res:A113_Eint>
-13.0675683582503

> <r_glide_res:A82_vdw>
-1.77667933637409

> <r_glide_res:A82_coul>
-56.4709127676452

> <r_glide_res:A82_hbond>
-0.272547450087565

> <r_glide_res:A82_dist>
2.00283922273285

> <r_glide_res:A82_Eint>
-58.5201395541069

> <r_glide_res:A42_vdw>
0.262908481388418

> <r_glide_res:A42_coul>
-44.885031323881

> <r_glide_res:A42_hbond>
-0.121734824367243

> <r_glide_res:A42_dist>
1.95162750461949

> <r_glide_res:A42_Eint>
-44.7438576668598

> <r_glide_res:A16_vdw>
-0.141362505174665

> <r_glide_res:A16_coul>
-17.7698157765814

> <r_glide_res:A16_hbond>
0

> <r_glide_res:A16_dist>
5.62289117534642

> <r_glide_res:A16_Eint>
-17.9111782817561

> <s_m_source_file>
ligprep_Nicaido_neutral.maegz

> <i_m_source_file_index>
25

> <i_lp_mmshare_version>
58128

> <i_f3d_flags>
0

> <s_lp_Force_Field>
S-OPLS

> <r_lp_Energy>
27.061927

> <b_lp_Chiralities_Consistent>
1

> <s_lp_Variant>
Cephalosporin C-1

> <s_epik_input>
Tz1bQ0hdT1tDSDJdQyg9QzFDKD1PKVtPSF0pW0NIMl1TW0NASF0oTjEyKVtDQEhdKEMyPU8pW05IXUMoPU8pW0NIMl1bQ0gyXVtDSDJdW0NAQEhdKFtOSDJdKUMoPU8pW09IXQ==

> <s_epik_cmdline>
J2VwaWtfcHl0aG9uJywgJy1waHQnLCAnMC4wJywgJy1waCcsICc3LjQnLCAnLW50JywgJy1tYScsICc1MDAnLCAnLWltYWUnLCAnPGluZmlsZS5tYWU+JywgJy1vbWFlJywgJzxvdXRmaWxlLm1hZT4n

> <r_lp_tautomer_probability>
1

> <r_epik_Ionization_Penalty>
  0.0034

> <r_epik_Ionization_Penalty_Charging>
  0.0034

> <r_epik_Ionization_Penalty_Neutral>
  0.0000

> <r_epik_State_Penalty>
  0.0000

> <r_epik_Charging_Adjusted_Penalty>
0.00339038450865705

> <i_epik_Tot_Q>
-1

> <i_epik_Tot_abs_Q>
3

> <s_epik_Chemistry_Notes>
This compound has an ester and may undergo hydrolysis at high or low pH. This compound contains an acetal/aminal-like group ( X-CH(R)-Y where X, Y are N, S, or O) that may be acid/base labile, releasing an aldehyde.

> <s_m_subgroup_title>
glide-dock_Nicaido_neutral_pv1

> <s_m_subgroupid>
glide-dock_Nicaido_neutral_pv1

> <b_m_subgroup_collapsed>
0

$$$$
Ceftazidime
                    3D
 Schrodinger Suite 2022-2.
 58 61  0  0  1  0            999 V2000
  -20.1944  -23.2752  -17.5373 C   0  0  0  0  0  0
  -21.3535  -24.1662  -18.0160 C   0  0  0  0  0  0
  -21.4335  -24.1235  -19.5638 C   0  0  0  0  0  0
  -21.0766  -25.6039  -17.5114 C   0  0  0  0  0  0
  -21.5689  -25.9486  -16.4134 O   0  5  0  0  0  0
  -20.3433  -26.3497  -18.2046 O   0  0  0  0  0  0
  -22.5146  -23.5731  -17.4080 O   0  0  0  0  0  0
  -23.7096  -24.1747  -17.8583 N   0  0  0  0  0  0
  -24.5994  -23.3224  -18.1978 C   0  0  0  0  0  0
  -25.9393  -23.8107  -18.7316 C   0  0  0  0  0  0
  -26.7767  -22.8511  -19.1597 N   0  0  0  0  0  0
  -28.0160  -23.0764  -19.8979 C   0  0  1  0  0  0
  -28.6212  -21.7675  -20.4380 C   0  0  2  0  0  0
  -28.3145  -22.2400  -21.7802 N   0  0  0  0  0  0
  -28.4430  -21.4669  -22.9499 C   0  0  0  0  0  0
  -28.3842  -22.3018  -24.2895 C   0  0  0  0  0  0
  -29.1687  -23.2726  -24.3824 O   0  5  0  0  0  0
  -27.5698  -21.9479  -25.1690 O   0  0  0  0  0  0
  -28.6600  -20.1235  -22.8941 C   0  0  0  0  0  0
  -28.8771  -19.2401  -24.1256 C   0  0  0  0  0  0
  -30.3218  -19.0919  -24.3617 N   0  3  0  0  0  0
  -30.9557  -20.0024  -25.1484 C   0  0  0  0  0  0
  -32.3439  -19.9225  -25.3683 C   0  0  0  0  0  0
  -33.0731  -18.8823  -24.7617 C   0  0  0  0  0  0
  -32.3917  -17.9495  -23.9562 C   0  0  0  0  0  0
  -30.9985  -18.0737  -23.7760 C   0  0  0  0  0  0
  -28.7575  -19.3574  -21.5681 C   0  0  0  0  0  0
  -27.8494  -20.1446  -20.2251 S   0  0  0  0  0  0
  -27.7806  -23.4470  -21.3846 C   0  0  0  0  0  0
  -27.2653  -24.3494  -22.0133 O   0  0  0  0  0  0
  -26.2053  -25.0122  -18.8132 O   0  0  0  0  0  0
  -24.4115  -21.8385  -18.1503 C   0  0  0  0  0  0
  -24.1493  -21.1722  -16.9752 C   0  0  0  0  0  0
  -23.9688  -19.4535  -17.2212 S   0  0  0  0  0  0
  -24.2994  -19.7004  -18.9242 C   0  0  0  0  0  0
  -24.3626  -18.6439  -19.8131 N   0  0  0  0  0  0
  -24.4784  -20.9770  -19.2571 N   0  0  0  0  0  0
  -19.2372  -23.6112  -17.9370 H   0  0  0  0  0  0
  -20.3417  -22.2434  -17.8563 H   0  0  0  0  0  0
  -20.1218  -23.2719  -16.4491 H   0  0  0  0  0  0
  -20.4793  -24.3899  -20.0183 H   0  0  0  0  0  0
  -22.1799  -24.8175  -19.9514 H   0  0  0  0  0  0
  -21.6926  -23.1217  -19.9103 H   0  0  0  0  0  0
  -26.4781  -21.8852  -19.0859 H   0  0  0  0  0  0
  -28.7495  -23.6836  -19.3650 H   0  0  0  0  0  0
  -29.7003  -21.7101  -20.2833 H   0  0  0  0  0  0
  -28.4413  -18.2495  -23.9995 H   0  0  0  0  0  0
  -28.4305  -19.6406  -25.0323 H   0  0  0  0  0  0
  -30.3413  -20.7831  -25.5732 H   0  0  0  0  0  0
  -32.8535  -20.6566  -25.9750 H   0  0  0  0  0  0
  -34.1421  -18.8067  -24.9017 H   0  0  0  0  0  0
  -32.9322  -17.1496  -23.4700 H   0  0  0  0  0  0
  -30.4201  -17.3940  -23.1647 H   0  0  0  0  0  0
  -28.3694  -18.3496  -21.6485 H   0  0  0  0  0  0
  -29.8067  -19.2719  -21.2816 H   0  0  0  0  0  0
  -24.0427  -21.5900  -15.9833 H   0  0  0  0  0  0
  -24.8258  -18.8004  -20.6976 H   0  0  0  0  0  0
  -24.4723  -17.7161  -19.4294 H   0  0  0  0  0  0
  1  2  1  0  0  0
  1 38  1  0  0  0
  1 39  1  0  0  0
  1 40  1  0  0  0
  2  3  1  0  0  0
  2  4  1  0  0  0
  2  7  1  0  0  0
  3 41  1  0  0  0
  3 42  1  0  0  0
  3 43  1  0  0  0
  4  5  1  0  0  0
  4  6  2  0  0  0
  7  8  1  0  0  0
  8  9  2  3  0  0
  9 10  1  0  0  0
  9 32  1  0  0  0
 10 11  1  0  0  0
 10 31  2  0  0  0
 11 12  1  0  0  0
 11 44  1  0  0  0
 12 29  1  0  0  0
 12 13  1  0  0  0
 12 45  1  0  0  0
 13 28  1  0  0  0
 13 14  1  0  0  0
 13 46  1  0  0  0
 14 15  1  0  0  0
 14 29  1  0  0  0
 15 16  1  0  0  0
 15 19  2  0  0  0
 16 17  1  0  0  0
 16 18  2  0  0  0
 19 20  1  0  0  0
 19 27  1  0  0  0
 20 21  1  0  0  0
 20 47  1  0  0  0
 20 48  1  0  0  0
 21 26  1  0  0  0
 21 22  2  0  0  0
 22 23  1  0  0  0
 22 49  1  0  0  0
 23 24  2  0  0  0
 23 50  1  0  0  0
 24 25  1  0  0  0
 24 51  1  0  0  0
 25 26  2  0  0  0
 25 52  1  0  0  0
 26 53  1  0  0  0
 27 28  1  0  0  0
 27 54  1  0  0  0
 27 55  1  0  0  0
 29 30  2  0  0  0
 32 37  1  0  0  0
 32 33  2  0  0  0
 33 34  1  0  0  0
 33 56  1  0  0  0
 34 35  1  0  0  0
 35 36  1  0  0  0
 35 37  2  0  0  0
 36 57  1  0  0  0
 36 58  1  0  0  0
M  CHG  3   5  -1  17  -1  21   1
M  END
> <s_m_entry_id>
27573

> <s_m_entry_name>
data_maestro.30

> <s_m_Source_Path>
C:\Users\olshana1\Git\GramNeg-Accumulation\Gram Negative Permeation - OmpF

> <s_m_Source_File>
data_maestro.csv

> <i_m_Source_File_Index>
30

> <s_m_job_name>
glide-dock_Nicaido_neutral

> <s_i_glide_gridfile>
3POX-grid

> <i_i_glide_lignum>
38

> <i_i_glide_rotatable_bonds>
10

> <r_i_docking_score>
-4.58717092584113

> <r_i_glide_ligand_efficiency>
-0.123977592590301

> <r_i_glide_ligand_efficiency_sa>
-0.413120842646611

> <r_i_glide_ligand_efficiency_ln>
-0.994849835270765

> <r_i_glide_gscore>
-4.58717092584113

> <r_i_glide_lipo>
0

> <r_i_glide_hbond>
-1.01120381020239

> <r_i_glide_metal>
0

> <r_i_glide_rewards>
0.902587858322309

> <r_i_glide_evdw>
-31.9805679321289

> <r_i_glide_ecoul>
-18.5074939727783

> <r_i_glide_erotb>
0.556495996469625

> <r_i_glide_esite>
-0.659898477907473

> <r_i_glide_emodel>
-78.4961448594551

> <r_i_glide_energy>
-50.4880619049072

> <r_i_glide_einternal>
6.36183786392212

> <i_i_glide_confnum>
336

> <i_i_glide_posenum>
22

> <r_i_glide_eff_state_penalty>
0

> <r_glide_res:A132_vdw>
-0.152038825345609

> <r_glide_res:A132_coul>
-36.4615753752935

> <r_glide_res:A132_hbond>
-0.123321068636147

> <r_glide_res:A132_dist>
2.19680157158021

> <r_glide_res:A132_Eint>
-36.7369352692752

> <r_glide_res:A117_vdw>
-3.04890753614884

> <r_glide_res:A117_coul>
5.26553475955019

> <r_glide_res:A117_hbond>
0

> <r_glide_res:A117_dist>
2.14766479510098

> <r_glide_res:A117_Eint>
2.21662722340135

> <r_glide_res:A113_vdw>
-3.39090967786055

> <r_glide_res:A113_coul>
3.88496127722214

> <r_glide_res:A113_hbond>
0

> <r_glide_res:A113_dist>
2.65323950146349

> <r_glide_res:A113_Eint>
0.494051599361586

> <r_glide_res:A82_vdw>
-1.40370176527009

> <r_glide_res:A82_coul>
-39.9298068763692

> <r_glide_res:A82_hbond>
-0.16

> <r_glide_res:A82_dist>
1.87141756175908

> <r_glide_res:A82_Eint>
-41.4935086416393

> <r_glide_res:A42_vdw>
2.09585428970478

> <r_glide_res:A42_coul>
-42.3338317759999

> <r_glide_res:A42_hbond>
-0.336466621739654

> <r_glide_res:A42_dist>
1.61657324013348

> <r_glide_res:A42_Eint>
-40.5744441080347

> <r_glide_res:A16_vdw>
-0.890689969459878

> <r_glide_res:A16_coul>
-7.17315492202169

> <r_glide_res:A16_hbond>
0

> <r_glide_res:A16_dist>
2.57462463278872

> <r_glide_res:A16_Eint>
-8.06384489148157

> <s_m_source_file>
ligprep_Nicaido_neutral.maegz

> <i_m_source_file_index>
30

> <i_lp_mmshare_version>
58128

> <i_f3d_flags>
0

> <s_lp_Force_Field>
S-OPLS

> <r_lp_Energy>
86.633473

> <b_lp_Chiralities_Consistent>
1

> <s_lp_Variant>
Ceftazidime-1

> <s_epik_input>
W09IXUMoPU8pQyhbQ0gzXSkoW0NIM10pTy9OPUMoYzFbY0hdc2MobjEpW05IMl0pL0MoPU8pW05IXVtDQEBIXTJDKD1PKU4oW0NAQEhdMjMpQyhDKD1PKVtPSF0pPUMoW0NIMl1TMylbQ0gyXVtuK100W2NIXVtjSF1bY0hdW2NIXVtjSF00

> <s_epik_cmdline>
J2VwaWtfcHl0aG9uJywgJy1waHQnLCAnMC4wJywgJy1waCcsICc3LjQnLCAnLW50JywgJy1tYScsICc1MDAnLCAnLWltYWUnLCAnPGluZmlsZS5tYWU+JywgJy1vbWFlJywgJzxvdXRmaWxlLm1hZT4n

> <r_lp_tautomer_probability>
1

> <r_epik_Ionization_Penalty>
  0.0005

> <r_epik_Ionization_Penalty_Charging>
  0.0001

> <r_epik_Ionization_Penalty_Neutral>
  0.0005

> <r_epik_State_Penalty>
  0.0000

> <r_epik_Charging_Adjusted_Penalty>
5.84857251211915e-05

> <i_epik_Tot_Q>
-1

> <i_epik_Tot_abs_Q>
3

> <s_epik_Chemistry_Notes>
This compound has an imine and may undergo hydrolysis. This compound contains an acetal/aminal-like group ( X-CH(R)-Y where X, Y are N, S, or O) that may be acid/base labile, releasing an aldehyde.

> <s_m_subgroup_title>
glide-dock_Nicaido_neutral_pv1

> <s_m_subgroupid>
glide-dock_Nicaido_neutral_pv1

> <b_m_subgroup_collapsed>
0

$$$$
Cefamandole
                    3D
 Schrodinger Suite 2022-2.
 48 51  0  0  1  0            999 V2000
  -27.5080  -23.1701  -17.8201 C   0  0  0  0  0  0
  -26.1708  -23.6858  -18.0351 N   0  0  0  0  0  0
  -24.9717  -23.1076  -17.9012 C   0  0  0  0  0  0
  -24.7368  -21.4078  -17.5221 S   0  0  0  0  0  0
  -24.5274  -20.8207  -19.2312 C   0  0  0  0  0  0
  -25.8499  -20.7644  -19.9974 C   0  0  0  0  0  0
  -26.2269  -21.6476  -20.9642 C   0  0  0  0  0  0
  -27.5133  -21.6426  -21.5460 N   0  0  0  0  0  0
  -28.6343  -20.8566  -21.0514 C   0  0  2  0  0  0
  -29.3247  -21.1658  -22.3973 C   0  0  2  0  0  0
  -28.2576  -22.2844  -22.5255 C   0  0  0  0  0  0
  -28.0930  -23.2961  -23.1789 O   0  0  0  0  0  0
  -29.1474  -20.0359  -23.3072 N   0  0  0  0  0  0
  -29.0706  -20.0399  -24.6432 C   0  0  0  0  0  0
  -28.7677  -18.6700  -25.2673 C   0  0  2  0  0  0
  -29.9837  -18.1864  -26.0559 C   0  0  0  0  0  0
  -31.2012  -17.9496  -25.3754 C   0  0  0  0  0  0
  -32.3457  -17.5262  -26.0774 C   0  0  0  0  0  0
  -32.2829  -17.3292  -27.4691 C   0  0  0  0  0  0
  -31.0726  -17.5495  -28.1517 C   0  0  0  0  0  0
  -29.9258  -17.9661  -27.4507 C   0  0  0  0  0  0
  -27.5689  -18.7496  -26.0134 O   0  0  0  0  0  0
  -29.2308  -21.0467  -25.3416 O   0  0  0  0  0  0
  -28.0599  -19.1826  -20.6413 S   0  0  0  0  0  0
  -26.7554  -19.6490  -19.4900 C   0  0  0  0  0  0
  -25.3025  -22.8039  -21.4604 C   0  0  0  0  0  0
  -24.1761  -22.4964  -21.9052 O   0  5  0  0  0  0
  -25.7936  -23.9496  -21.3765 O   0  0  0  0  0  0
  -24.0002  -23.9859  -18.1190 N   0  0  0  0  0  0
  -24.6732  -25.1495  -18.4290 N   0  0  0  0  0  0
  -25.9628  -24.9733  -18.4134 N   0  0  0  0  0  0
  -27.7315  -22.3922  -18.5465 H   0  0  0  0  0  0
  -28.2471  -23.9667  -17.9108 H   0  0  0  0  0  0
  -27.5689  -22.7495  -16.8154 H   0  0  0  0  0  0
  -23.7716  -21.4359  -19.7133 H   0  0  0  0  0  0
  -24.1020  -19.8177  -19.1990 H   0  0  0  0  0  0
  -29.1211  -21.3309  -20.1952 H   0  0  0  0  0  0
  -30.3572  -21.4945  -22.2778 H   0  0  0  0  0  0
  -28.9579  -19.1561  -22.8432 H   0  0  0  0  0  0
  -28.5854  -17.9496  -24.4689 H   0  0  0  0  0  0
  -31.2623  -18.0876  -24.3051 H   0  0  0  0  0  0
  -33.2672  -17.3437  -25.5442 H   0  0  0  0  0  0
  -33.1570  -16.9944  -28.0079 H   0  0  0  0  0  0
  -31.0156  -17.3771  -29.2133 H   0  0  0  0  0  0
  -29.0044  -18.1077  -27.9944 H   0  0  0  0  0  0
  -27.2283  -17.8552  -26.1326 H   0  0  0  0  0  0
  -27.2114  -19.9615  -18.5513 H   0  0  0  0  0  0
  -26.1697  -18.7538  -19.2801 H   0  0  0  0  0  0
  1  2  1  0  0  0
  1 32  1  0  0  0
  1 33  1  0  0  0
  1 34  1  0  0  0
  2 31  1  0  0  0
  2  3  1  0  0  0
  3  4  1  0  0  0
  3 29  2  0  0  0
  4  5  1  0  0  0
  5  6  1  0  0  0
  5 35  1  0  0  0
  5 36  1  0  0  0
  6 25  1  0  0  0
  6  7  2  0  0  0
  7  8  1  0  0  0
  7 26  1  0  0  0
  8 11  1  0  0  0
  8  9  1  0  0  0
  9 10  1  0  0  0
  9 24  1  0  0  0
  9 37  1  0  0  0
 10 11  1  0  0  0
 10 13  1  0  0  0
 10 38  1  0  0  0
 11 12  2  0  0  0
 13 14  1  0  0  0
 13 39  1  0  0  0
 14 15  1  0  0  0
 14 23  2  0  0  0
 15 16  1  0  0  0
 15 22  1  0  0  0
 15 40  1  0  0  0
 16 21  1  0  0  0
 16 17  2  0  0  0
 17 18  1  0  0  0
 17 41  1  0  0  0
 18 19  2  0  0  0
 18 42  1  0  0  0
 19 20  1  0  0  0
 19 43  1  0  0  0
 20 21  2  0  0  0
 20 44  1  0  0  0
 21 45  1  0  0  0
 22 46  1  0  0  0
 24 25  1  0  0  0
 25 47  1  0  0  0
 25 48  1  0  0  0
 26 27  1  0  0  0
 26 28  2  0  0  0
 29 30  1  0  0  0
 30 31  2  0  0  0
M  CHG  1  27  -1
M  END
> <s_m_entry_id>
27574

> <s_m_entry_name>
data_maestro.9

> <s_m_Source_Path>
C:\Users\olshana1\Git\GramNeg-Accumulation\Gram Negative Permeation - OmpF

> <s_m_Source_File>
data_maestro.csv

> <i_m_Source_File_Index>
9

> <s_m_job_name>
glide-dock_Nicaido_neutral

> <s_i_glide_gridfile>
3POX-grid

> <i_i_glide_lignum>
12

> <i_i_glide_rotatable_bonds>
9

> <r_i_docking_score>
-4.58330577694834

> <r_i_glide_ligand_efficiency>
-0.147848573449947

> <r_i_glide_ligand_efficiency_sa>
-0.464448647587693

> <r_i_glide_ligand_efficiency_ln>
-1.03367591415513

> <r_i_glide_gscore>
-4.58330577694834

> <r_i_glide_lipo>
0

> <r_i_glide_hbond>
-0.306898831886676

> <r_i_glide_metal>
0

> <r_i_glide_rewards>
-0.262245062646697

> <r_i_glide_evdw>
-34.7239456176758

> <r_i_glide_ecoul>
-14.4403142929077

> <r_i_glide_erotb>
0.567285116635731

> <r_i_glide_esite>
-0.679202574230755

> <r_i_glide_emodel>
-71.5527717740551

> <r_i_glide_energy>
-49.1642599105835

> <r_i_glide_einternal>
7.32318687438965

> <i_i_glide_confnum>
113

> <i_i_glide_posenum>
223

> <r_i_glide_eff_state_penalty>
0

> <r_glide_res:A132_vdw>
-1.34278269288228

> <r_glide_res:A132_coul>
-45.3099576744375

> <r_glide_res:A132_hbond>
-0.2

> <r_glide_res:A132_dist>
1.84059152151671

> <r_glide_res:A132_Eint>
-46.8527403673198

> <r_glide_res:A117_vdw>
-3.32781396469181

> <r_glide_res:A117_coul>
13.8159123631401

> <r_glide_res:A117_hbond>
0

> <r_glide_res:A117_dist>
1.73155544066587

> <r_glide_res:A117_Eint>
10.4880983984483

> <r_glide_res:A113_vdw>
-2.87751187462233

> <r_glide_res:A113_coul>
11.9105238459298

> <r_glide_res:A113_hbond>
0

> <r_glide_res:A113_dist>
2.75569686719326

> <r_glide_res:A113_Eint>
9.03301197130742

> <r_glide_res:A82_vdw>
-1.54466356488378

> <r_glide_res:A82_coul>
-39.6989444246025

> <r_glide_res:A82_hbond>
-0.106898831886676

> <r_glide_res:A82_dist>
2.21249275556413

> <r_glide_res:A82_Eint>
-41.350506821373

> <r_glide_res:A42_vdw>
-1.45189665684589

> <r_glide_res:A42_coul>
-35.289828441547

> <r_glide_res:A42_hbond>
0

> <r_glide_res:A42_dist>
2.95923899581066

> <r_glide_res:A42_Eint>
-36.7417250983929

> <r_glide_res:A16_vdw>
-1.43406584205798

> <r_glide_res:A16_coul>
-26.0271598096548

> <r_glide_res:A16_hbond>
0

> <r_glide_res:A16_dist>
2.78119533231561

> <r_glide_res:A16_Eint>
-27.4612256517128

> <s_m_source_file>
ligprep_Nicaido_neutral.maegz

> <i_m_source_file_index>
9

> <i_lp_mmshare_version>
58128

> <i_f3d_flags>
0

> <s_lp_Force_Field>
S-OPLS

> <r_lp_Energy>
50.610726

> <b_lp_Chiralities_Consistent>
1

> <s_lp_Variant>
Cefamandole-1

> <s_epik_input>
bjFubmMobjFbQ0gzXSlTW0NIMl1DKD1DMkMoPU8pW09IXSlbQ0gyXVNbQ0BIXShOMjMpW0NASF0oQzM9TylbTkhdQyg9TylbQ0BASF0oW09IXSljNFtjSF1bY0hdW2NIXVtjSF1bY0hdNA==

> <s_epik_cmdline>
J2VwaWtfcHl0aG9uJywgJy1waHQnLCAnMC4wJywgJy1waCcsICc3LjQnLCAnLW50JywgJy1tYScsICc1MDAnLCAnLWltYWUnLCAnPGluZmlsZS5tYWU+JywgJy1vbWFlJywgJzxvdXRmaWxlLm1hZT4n

> <r_lp_tautomer_probability>
1

> <r_epik_Ionization_Penalty>
  0.0002

> <r_epik_Ionization_Penalty_Charging>
  0.0000

> <r_epik_Ionization_Penalty_Neutral>
  0.0002

> <r_epik_State_Penalty>
  0.0000

> <r_epik_Charging_Adjusted_Penalty>
8.65070171415913e-06

> <i_epik_Tot_Q>
-1

> <i_epik_Tot_abs_Q>
1

> <s_epik_Chemistry_Notes>
This compound contains an acetal/aminal-like group ( X-CH(R)-Y where X, Y are N, S, or O) that may be acid/base labile, releasing an aldehyde.

> <s_m_subgroup_title>
glide-dock_Nicaido_neutral_pv1

> <s_m_subgroupid>
glide-dock_Nicaido_neutral_pv1

> <b_m_subgroup_collapsed>
0

$$$$
Aztreonam
                    3D
 Schrodinger Suite 2022-2.
 43 44  0  0  1  0            999 V2000
  -20.4509  -23.1011  -19.3936 C   0  0  0  0  0  0
  -20.6741  -22.8235  -17.8972 C   0  0  1  0  0  0
  -22.0363  -23.0721  -17.1997 C   0  0  2  0  0  0
  -21.4284  -24.4474  -16.8129 C   0  0  0  0  0  0
  -20.1832  -23.9133  -17.0646 N   0  0  0  0  0  0
  -18.5918  -24.3975  -17.0270 S   0  0  0  0  0  0
  -18.5495  -25.5495  -17.9442 O   0  0  0  0  0  0
  -18.3690  -24.7495  -15.6134 O   0  5  0  0  0  0
  -17.8220  -23.2313  -17.4815 O   0  0  0  0  0  0
  -21.7975  -25.5444  -16.4477 O   0  0  0  0  0  0
  -23.1664  -23.0128  -18.1389 N   0  0  0  0  0  0
  -23.6734  -23.9536  -18.9586 C   0  0  0  0  0  0
  -24.6204  -23.3525  -19.9616 C   0  0  0  0  0  0
  -25.9312  -22.9915  -19.4026 C   0  0  0  0  0  0
  -26.3431  -21.6812  -19.3473 C   0  0  0  0  0  0
  -27.9687  -21.5433  -18.7463 S   0  0  0  0  0  0
  -28.0305  -23.2935  -18.6254 C   0  0  0  0  0  0
  -29.1690  -23.9496  -18.2097 N   0  0  0  0  0  0
  -26.8985  -23.9057  -18.9684 N   0  0  0  0  0  0
  -24.3786  -23.1595  -21.1945 N   0  0  0  0  0  0
  -23.1050  -23.6148  -21.5940 O   0  0  0  0  0  0
  -22.9474  -23.5612  -23.0215 C   0  0  0  0  0  0
  -23.7420  -24.6803  -23.7509 C   0  0  0  0  0  0
  -24.7682  -25.1492  -23.2135 O   0  5  0  0  0  0
  -23.3166  -25.0761  -24.8593 O   0  0  0  0  0  0
  -23.3346  -22.1861  -23.6141 C   0  0  0  0  0  0
  -21.4357  -23.7943  -23.2157 C   0  0  0  0  0  0
  -23.3827  -25.1499  -18.9728 O   0  0  0  0  0  0
  -20.9628  -22.3609  -20.0093 H   0  0  0  0  0  0
  -19.3936  -23.0573  -19.6553 H   0  0  0  0  0  0
  -20.8162  -24.0838  -19.6940 H   0  0  0  0  0  0
  -20.2331  -21.8776  -17.5793 H   0  0  0  0  0  0
  -22.1782  -22.4089  -16.3444 H   0  0  0  0  0  0
  -23.5446  -22.0843  -18.2631 H   0  0  0  0  0  0
  -25.8058  -20.7891  -19.6368 H   0  0  0  0  0  0
  -29.0542  -24.7183  -17.5687 H   0  0  0  0  0  0
  -29.9752  -23.3479  -18.0132 H   0  0  0  0  0  0
  -23.0495  -22.1149  -24.6646 H   0  0  0  0  0  0
  -24.4080  -22.0010  -23.5617 H   0  0  0  0  0  0
  -22.8336  -21.3763  -23.0830 H   0  0  0  0  0  0
  -21.1439  -23.7496  -24.2657 H   0  0  0  0  0  0
  -20.8592  -23.0321  -22.6898 H   0  0  0  0  0  0
  -21.1288  -24.7607  -22.8149 H   0  0  0  0  0  0
  1  2  1  0  0  0
  1 29  1  0  0  0
  1 30  1  0  0  0
  1 31  1  0  0  0
  2  5  1  0  0  0
  2  3  1  0  0  0
  2 32  1  0  0  0
  3  4  1  0  0  0
  3 11  1  0  0  0
  3 33  1  0  0  0
  4  5  1  0  0  0
  4 10  2  0  0  0
  5  6  1  0  0  0
  6  7  2  0  0  0
  6  8  1  0  0  0
  6  9  2  0  0  0
 11 12  1  0  0  0
 11 34  1  0  0  0
 12 13  1  0  0  0
 12 28  2  0  0  0
 13 14  1  0  0  0
 13 20  2  3  0  0
 14 19  1  0  0  0
 14 15  2  0  0  0
 15 16  1  0  0  0
 15 35  1  0  0  0
 16 17  1  0  0  0
 17 18  1  0  0  0
 17 19  2  0  0  0
 18 36  1  0  0  0
 18 37  1  0  0  0
 20 21  1  0  0  0
 21 22  1  0  0  0
 22 23  1  0  0  0
 22 26  1  0  0  0
 22 27  1  0  0  0
 23 24  1  0  0  0
 23 25  2  0  0  0
 26 38  1  0  0  0
 26 39  1  0  0  0
 26 40  1  0  0  0
 27 41  1  0  0  0
 27 42  1  0  0  0
 27 43  1  0  0  0
M  CHG  2   8  -1  24  -1
M  END
> <s_m_entry_id>
27575

> <s_m_entry_name>
data_maestro.21

> <s_m_Source_Path>
C:\Users\olshana1\Git\GramNeg-Accumulation\Gram Negative Permeation - OmpF

> <s_m_Source_File>
data_maestro.csv

> <i_m_Source_File_Index>
21

> <s_m_job_name>
glide-dock_Nicaido_neutral

> <s_i_glide_gridfile>
3POX-grid

> <i_i_glide_lignum>
27

> <i_i_glide_rotatable_bonds>
8

> <r_i_docking_score>
-4.58299552729758

> <r_i_glide_ligand_efficiency>
-0.163678411689199

> <r_i_glide_ligand_efficiency_sa>
-0.497024059317485

> <r_i_glide_ligand_efficiency_ln>
-1.05788993029607

> <r_i_glide_gscore>
-4.58299552729758

> <r_i_glide_lipo>
0

> <r_i_glide_hbond>
-0.757121158917385

> <r_i_glide_metal>
0

> <r_i_glide_rewards>
-0.448496235533851

> <r_i_glide_evdw>
-22.5641498565674

> <r_i_glide_ecoul>
-15.0784311294556

> <r_i_glide_erotb>
0.635830109179744

> <r_i_glide_esite>
-0.623236079779381

> <r_i_glide_emodel>
-60.0014982107

> <r_i_glide_energy>
-37.6425809860229

> <r_i_glide_einternal>
11.3370380401611

> <i_i_glide_confnum>
82

> <i_i_glide_posenum>
284

> <r_i_glide_eff_state_penalty>
0

> <r_glide_res:A132_vdw>
-2.5528784456117

> <r_glide_res:A132_coul>
-57.8325939448667

> <r_glide_res:A132_hbond>
0

> <r_glide_res:A132_dist>
2.65304433563234

> <r_glide_res:A132_Eint>
-60.3854723904784

> <r_glide_res:A117_vdw>
-0.313758637601542

> <r_glide_res:A117_coul>
29.5731758839737

> <r_glide_res:A117_hbond>
0

> <r_glide_res:A117_dist>
5.19577886491648

> <r_glide_res:A117_Eint>
29.2594172463722

> <r_glide_res:A113_vdw>
-0.607062263600706

> <r_glide_res:A113_coul>
22.2624801638504

> <r_glide_res:A113_hbond>
-0.152

> <r_glide_res:A113_dist>
1.85821157447573

> <r_glide_res:A113_Eint>
21.5034179002497

> <r_glide_res:A82_vdw>
0.632230164046174

> <r_glide_res:A82_coul>
-57.1947963075122

> <r_glide_res:A82_hbond>
-0.00395394673888703

> <r_glide_res:A82_dist>
2.31770018465404

> <r_glide_res:A82_Eint>
-56.5665200902049

> <r_glide_res:A42_vdw>
-0.818117130581968

> <r_glide_res:A42_coul>
-44.5114745851281

> <r_glide_res:A42_hbond>
0

> <r_glide_res:A42_dist>
3.42287042773432

> <r_glide_res:A42_Eint>
-45.3295917157101

> <r_glide_res:A16_vdw>
-0.0405150463999026

> <r_glide_res:A16_coul>
-26.5397141633352

> <r_glide_res:A16_hbond>
0

> <r_glide_res:A16_dist>
7.49060502993868

> <r_glide_res:A16_Eint>
-26.5802292097351

> <s_m_source_file>
ligprep_Nicaido_neutral.maegz

> <i_m_source_file_index>
21

> <i_lp_mmshare_version>
58128

> <i_f3d_flags>
0

> <s_lp_Force_Field>
S-OPLS

> <r_lp_Energy>
50.237147

> <b_lp_Chiralities_Consistent>
1

> <s_lp_Variant>
Aztreonam-2

> <s_epik_input>
Tz1TKD1PKShbT0hdKU4xQyg9TylbQ0BASF0oW0NAQEhdMVtDSDNdKVtOSF1DKD1PKS9DKGMyW2NIXXNjKG4yKVtOSDJdKT1OL09DKFtDSDNdKShbQ0gzXSlDKD1PKVtPSF0=

> <s_epik_cmdline>
J2VwaWtfcHl0aG9uJywgJy1waHQnLCAnMC4wJywgJy1waCcsICc3LjQnLCAnLW50JywgJy1tYScsICc1MDAnLCAnLWltYWUnLCAnPGluZmlsZS5tYWU+JywgJy1vbWFlJywgJzxvdXRmaWxlLm1hZT4n

> <r_lp_tautomer_probability>
1

> <r_epik_Ionization_Penalty>
  0.0004

> <r_epik_Ionization_Penalty_Charging>
  0.0000

> <r_epik_Ionization_Penalty_Neutral>
  0.0004

> <r_epik_State_Penalty>
  0.0000

> <r_epik_Charging_Adjusted_Penalty>
4.45674509427693e-05

> <i_epik_Tot_Q>
-2

> <i_epik_Tot_abs_Q>
2

> <s_epik_Chemistry_Notes>
This compound has an imine and may undergo hydrolysis.

> <s_m_subgroup_title>
glide-dock_Nicaido_neutral_pv1

> <s_m_subgroupid>
glide-dock_Nicaido_neutral_pv1

> <b_m_subgroup_collapsed>
0

$$$$
Ofloxacin
                    3D
 Schrodinger Suite 2022-2.
 46 49  0  0  1  0            999 V2000
  -24.7703  -19.7484  -25.2056 C   0  0  0  0  0  0
  -24.4482  -19.9018  -23.7076 C   0  0  1  0  0  0
  -24.2424  -18.5376  -23.0487 C   0  0  0  0  0  0
  -23.7093  -18.7286  -21.7526 O   0  0  0  0  0  0
  -24.3094  -19.7161  -21.0047 C   0  0  0  0  0  0
  -25.1701  -20.7060  -21.5427 C   0  0  0  0  0  0
  -25.4480  -20.6616  -22.9445 N   0  0  0  0  0  0
  -26.5032  -21.3842  -23.4903 C   0  0  0  0  0  0
  -27.1689  -22.3835  -22.8729 C   0  0  0  0  0  0
  -26.7031  -22.7496  -21.5031 C   0  0  0  0  0  0
  -25.7975  -21.7638  -20.8449 C   0  0  0  0  0  0
  -25.5124  -21.8057  -19.4623 C   0  0  0  0  0  0
  -24.6683  -20.8562  -18.8522 C   0  0  0  0  0  0
  -24.4210  -20.9517  -17.5219 F   0  0  0  0  0  0
  -24.0733  -19.8186  -19.6080 C   0  0  0  0  0  0
  -23.2390  -18.9007  -18.9441 N   0  0  0  0  0  0
  -21.8216  -19.0804  -19.2417 C   0  0  0  0  0  0
  -20.9583  -18.1527  -18.3730 C   0  0  0  0  0  0
  -21.3940  -16.7438  -18.5178 N   0  3  0  0  0  0
  -22.8293  -16.5738  -18.1845 C   0  0  0  0  0  0
  -23.7252  -17.5219  -18.9948 C   0  0  0  0  0  0
  -20.5233  -15.8005  -17.7809 C   0  0  0  0  0  0
  -27.0115  -23.8075  -20.9435 O   0  0  0  0  0  0
  -28.3631  -23.0924  -23.6036 C   0  0  0  0  0  0
  -28.5253  -22.8083  -24.8134 O   0  5  0  0  0  0
  -29.0045  -23.9496  -22.9585 O   0  0  0  0  0  0
  -23.9761  -19.2018  -25.7148 H   0  0  0  0  0  0
  -24.8631  -20.7135  -25.7019 H   0  0  0  0  0  0
  -25.6933  -19.1871  -25.3599 H   0  0  0  0  0  0
  -23.5099  -20.4538  -23.6443 H   0  0  0  0  0  0
  -23.5234  -17.9499  -23.6116 H   0  0  0  0  0  0
  -25.1690  -17.9631  -23.0010 H   0  0  0  0  0  0
  -26.8121  -21.0427  -24.4657 H   0  0  0  0  0  0
  -25.9543  -22.5764  -18.8469 H   0  0  0  0  0  0
  -21.5402  -20.1199  -19.0648 H   0  0  0  0  0  0
  -21.6348  -18.8778  -20.2976 H   0  0  0  0  0  0
  -19.9105  -18.2493  -18.6615 H   0  0  0  0  0  0
  -21.0311  -18.4475  -17.3240 H   0  0  0  0  0  0
  -23.1233  -15.5506  -18.4131 H   0  0  0  0  0  0
  -22.9814  -16.7478  -17.1165 H   0  0  0  0  0  0
  -23.7635  -17.1584  -20.0206 H   0  0  0  0  0  0
  -24.7476  -17.4785  -18.6139 H   0  0  0  0  0  0
  -20.6167  -15.9335  -16.7013 H   0  0  0  0  0  0
  -19.4799  -15.9528  -18.0539 H   0  0  0  0  0  0
  -20.7689  -14.7653  -18.0188 H   0  0  0  0  0  0
  -21.3041  -16.5195  -19.4987 H   0  0  0  0  0  0
  1  2  1  0  0  0
  1 27  1  0  0  0
  1 28  1  0  0  0
  1 29  1  0  0  0
  2  7  1  0  0  0
  2  3  1  0  0  0
  2 30  1  0  0  0
  3  4  1  0  0  0
  3 31  1  0  0  0
  3 32  1  0  0  0
  4  5  1  0  0  0
  5 15  1  0  0  0
  5  6  2  0  0  0
  6 11  1  0  0  0
  6  7  1  0  0  0
  7  8  1  0  0  0
  8  9  2  0  0  0
  8 33  1  0  0  0
  9 10  1  0  0  0
  9 24  1  0  0  0
 10 11  1  0  0  0
 10 23  2  0  0  0
 11 12  2  0  0  0
 12 13  1  0  0  0
 12 34  1  0  0  0
 13 14  1  0  0  0
 13 15  2  0  0  0
 15 16  1  0  0  0
 16 21  1  0  0  0
 16 17  1  0  0  0
 17 18  1  0  0  0
 17 35  1  0  0  0
 17 36  1  0  0  0
 18 19  1  0  0  0
 18 37  1  0  0  0
 18 38  1  0  0  0
 19 20  1  0  0  0
 19 22  1  0  0  0
 19 46  1  0  0  0
 20 21  1  0  0  0
 20 39  1  0  0  0
 20 40  1  0  0  0
 21 41  1  0  0  0
 21 42  1  0  0  0
 22 43  1  0  0  0
 22 44  1  0  0  0
 22 45  1  0  0  0
 24 25  1  0  0  0
 24 26  2  0  0  0
M  CHG  2  19   1  25  -1
M  END
> <s_m_entry_id>
27576

> <s_m_entry_name>
data_maestro.32

> <s_m_Source_Path>
C:\Users\olshana1\Git\GramNeg-Accumulation\Gram Negative Permeation - OmpF

> <s_m_Source_File>
data_maestro.csv

> <i_m_Source_File_Index>
32

> <s_m_job_name>
glide-dock_Nicaido_neutral

> <s_i_glide_gridfile>
3POX-grid

> <i_i_glide_lignum>
41

> <i_i_glide_rotatable_bonds>
2

> <r_i_docking_score>
-4.57940468018134

> <r_i_glide_ligand_efficiency>
-0.176130949237744

> <r_i_glide_ligand_efficiency_sa>
-0.521787244074996

> <r_i_glide_ligand_efficiency_ln>
-1.07545816288824

> <r_i_glide_gscore>
-4.57940468018134

> <r_i_glide_lipo>
-0.389509819409498

> <r_i_glide_hbond>
-0.736832337946756

> <r_i_glide_metal>
0

> <r_i_glide_rewards>
-0.945221570454544

> <r_i_glide_evdw>
-19.8363037109375

> <r_i_glide_ecoul>
-9.91023731231689

> <r_i_glide_erotb>
0.146950134654495

> <r_i_glide_esite>
-0.176440304630624

> <r_i_glide_emodel>
-50.6608045158673

> <r_i_glide_energy>
-29.7465410232544

> <r_i_glide_einternal>
1.89552772045135

> <i_i_glide_confnum>
2

> <i_i_glide_posenum>
52

> <r_i_glide_eff_state_penalty>
0

> <r_glide_res:A132_vdw>
-1.49857813205431

> <r_glide_res:A132_coul>
-23.8543798631354

> <r_glide_res:A132_hbond>
-0.184016671039511

> <r_glide_res:A132_dist>
2.18867850925558

> <r_glide_res:A132_Eint>
-25.5369746662292

> <r_glide_res:A117_vdw>
-2.09590770494323

> <r_glide_res:A117_coul>
-2.22963710220593

> <r_glide_res:A117_hbond>
0

> <r_glide_res:A117_dist>
2.36466273814247

> <r_glide_res:A117_Eint>
-4.32554480714916

> <r_glide_res:A113_vdw>
-0.576491901849323

> <r_glide_res:A113_coul>
10.9823980129837

> <r_glide_res:A113_hbond>
0

> <r_glide_res:A113_dist>
5.36963638147336

> <r_glide_res:A113_Eint>
10.4059061111344

> <r_glide_res:A82_vdw>
-0.0234939328169632

> <r_glide_res:A82_coul>
-34.1980747010215

> <r_glide_res:A82_hbond>
-0.243434487779294

> <r_glide_res:A82_dist>
1.87884693652889

> <r_glide_res:A82_Eint>
-34.4650031216178

> <r_glide_res:A42_vdw>
-0.741162093858154

> <r_glide_res:A42_coul>
-30.6802470690205

> <r_glide_res:A42_hbond>
-0.309381179127951

> <r_glide_res:A42_dist>
2.026674786539

> <r_glide_res:A42_Eint>
-31.7307903420066

> <r_glide_res:A16_vdw>
-0.216536996595789

> <r_glide_res:A16_coul>
-15.4500567838196

> <r_glide_res:A16_hbond>
0

> <r_glide_res:A16_dist>
4.09495028009852

> <r_glide_res:A16_Eint>
-15.6665937804153

> <s_m_source_file>
ligprep_Nicaido_neutral.maegz

> <i_m_source_file_index>
32

> <i_lp_mmshare_version>
58128

> <i_f3d_flags>
0

> <s_lp_Force_Field>
S-OPLS

> <r_lp_Energy>
60.370079

> <b_lp_Chiralities_Consistent>
1

> <s_lp_Variant>
Ofloxacin-1

> <s_epik_input>
TzFbQ0gyXVtDQEhdKFtDSDNdKW4oYzJjMTMpW2NIXWMoQyg9TylbT0hdKWMoPU8pYzJbY0hdYyhGKWMzTjRbQ0gyXVtDSDJdTihbQ0gzXSlbQ0gyXVtDSDJdNA==

> <s_epik_cmdline>
J2VwaWtfcHl0aG9uJywgJy1waHQnLCAnMC4wJywgJy1waCcsICc3LjQnLCAnLW50JywgJy1tYScsICc1MDAnLCAnLWltYWUnLCAnPGluZmlsZS5tYWU+JywgJy1vbWFlJywgJzxvdXRmaWxlLm1hZT4n

> <r_lp_tautomer_probability>
1

> <r_epik_Ionization_Penalty>
  0.1907

> <r_epik_Ionization_Penalty_Charging>
  0.1907

> <r_epik_Ionization_Penalty_Neutral>
  0.0000

> <r_epik_State_Penalty>
  0.0000

> <r_epik_Charging_Adjusted_Penalty>
0.190712686691679

> <i_epik_Tot_Q>
0

> <i_epik_Tot_abs_Q>
2

> <s_m_subgroup_title>
glide-dock_Nicaido_neutral_pv1

> <s_m_subgroupid>
glide-dock_Nicaido_neutral_pv1

> <b_m_subgroup_collapsed>
0

$$$$
Cefmetazole
                    3D
 Schrodinger Suite 2022-2.
 46 48  0  0  1  0            999 V2000
  -27.8505  -20.4951  -18.5613 C   0  0  0  0  0  0
  -27.8522  -21.8476  -19.0570 N   0  0  0  0  0  0
  -27.3808  -22.3533  -20.1967 C   0  0  0  0  0  0
  -26.5584  -21.3989  -21.4215 S   0  0  0  0  0  0
  -27.9520  -20.4258  -22.0942 C   0  0  0  0  0  0
  -29.3007  -21.1422  -22.2479 C   0  0  0  0  0  0
  -29.5210  -22.1432  -23.1365 C   0  0  0  0  0  0
  -30.7897  -22.7107  -23.3633 N   0  0  0  0  0  0
  -31.9048  -22.5870  -22.4411 C   0  0  2  0  0  0
  -32.7802  -23.2901  -23.5092 C   0  0  1  0  0  0
  -33.6452  -22.4259  -24.2509 O   0  0  0  0  0  0
  -34.8896  -22.1232  -23.6322 C   0  0  0  0  0  0
  -31.4502  -23.5070  -24.2808 C   0  0  0  0  0  0
  -31.0715  -24.0908  -25.2739 O   0  0  0  0  0  0
  -33.4064  -24.5311  -23.0261 N   0  0  0  0  0  0
  -33.9200  -25.4975  -23.8080 C   0  0  0  0  0  0
  -34.5856  -26.6821  -23.0971 C   0  0  0  0  0  0
  -34.8470  -28.1601  -24.1365 S   0  0  0  0  0  0
  -36.2196  -27.5986  -25.1891 C   0  0  0  0  0  0
  -36.7296  -28.6867  -26.0406 C   0  0  0  0  0  0
  -37.1391  -29.5395  -26.7131 N   0  0  0  0  0  0
  -33.8794  -25.4503  -25.0363 O   0  0  0  0  0  0
  -32.0749  -20.8292  -22.0132 S   0  0  0  0  0  0
  -30.4055  -20.6018  -21.3490 C   0  0  0  0  0  0
  -28.3776  -22.7017  -24.0158 C   0  0  0  0  0  0
  -27.6373  -23.5495  -23.4725 O   0  5  0  0  0  0
  -28.3690  -22.3496  -25.2134 O   0  0  0  0  0  0
  -27.5517  -23.6701  -20.2313 N   0  0  0  0  0  0
  -28.1818  -23.9495  -19.0336 N   0  0  0  0  0  0
  -28.3493  -22.8736  -18.3246 N   0  0  0  0  0  0
  -26.8252  -20.1505  -18.4262 H   0  0  0  0  0  0
  -28.3692  -19.8340  -19.2523 H   0  0  0  0  0  0
  -28.3675  -20.4593  -17.6134 H   0  0  0  0  0  0
  -27.6494  -20.0481  -23.0713 H   0  0  0  0  0  0
  -28.0670  -19.5335  -21.4798 H   0  0  0  0  0  0
  -31.7302  -23.1901  -21.5470 H   0  0  0  0  0  0
  -35.4014  -21.3529  -24.2092 H   0  0  0  0  0  0
  -35.5430  -22.9950  -23.5991 H   0  0  0  0  0  0
  -34.7604  -21.7488  -22.6168 H   0  0  0  0  0  0
  -33.4808  -24.6366  -22.0246 H   0  0  0  0  0  0
  -35.5456  -26.3606  -22.6917 H   0  0  0  0  0  0
  -33.9688  -26.9757  -22.2475 H   0  0  0  0  0  0
  -35.8984  -26.7823  -25.8348 H   0  0  0  0  0  0
  -37.0379  -27.2364  -24.5676 H   0  0  0  0  0  0
  -30.3373  -21.1497  -20.4134 H   0  0  0  0  0  0
  -30.2684  -19.5413  -21.1366 H   0  0  0  0  0  0
  1  2  1  0  0  0
  1 31  1  0  0  0
  1 32  1  0  0  0
  1 33  1  0  0  0
  2 30  1  0  0  0
  2  3  1  0  0  0
  3  4  1  0  0  0
  3 28  2  0  0  0
  4  5  1  0  0  0
  5  6  1  0  0  0
  5 34  1  0  0  0
  5 35  1  0  0  0
  6 24  1  0  0  0
  6  7  2  0  0  0
  7  8  1  0  0  0
  7 25  1  0  0  0
  8 13  1  0  0  0
  8  9  1  0  0  0
  9 10  1  0  0  0
  9 23  1  0  0  0
  9 36  1  0  0  0
 10 11  1  0  0  0
 10 13  1  0  0  0
 10 15  1  0  0  0
 11 12  1  0  0  0
 12 37  1  0  0  0
 12 38  1  0  0  0
 12 39  1  0  0  0
 13 14  2  0  0  0
 15 16  1  0  0  0
 15 40  1  0  0  0
 16 17  1  0  0  0
 16 22  2  0  0  0
 17 18  1  0  0  0
 17 41  1  0  0  0
 17 42  1  0  0  0
 18 19  1  0  0  0
 19 20  1  0  0  0
 19 43  1  0  0  0
 19 44  1  0  0  0
 20 21  3  0  0  0
 23 24  1  0  0  0
 24 45  1  0  0  0
 24 46  1  0  0  0
 25 26  1  0  0  0
 25 27  2  0  0  0
 28 29  1  0  0  0
 29 30  2  0  0  0
M  CHG  1  26  -1
M  END
> <s_m_entry_id>
27577

> <s_m_entry_name>
data_maestro.3

> <s_m_Source_Path>
C:\Users\olshana1\Git\GramNeg-Accumulation\Gram Negative Permeation - OmpF

> <s_m_Source_File>
data_maestro.csv

> <i_m_Source_File_Index>
3

> <s_m_job_name>
glide-dock_Nicaido_neutral

> <s_i_glide_gridfile>
3POX-grid

> <i_i_glide_lignum>
3

> <i_i_glide_rotatable_bonds>
10

> <r_i_docking_score>
-4.57577440504167

> <r_i_glide_ligand_efficiency>
-0.152525813501389

> <r_i_glide_ligand_efficiency_sa>
-0.473933165171258

> <r_i_glide_ligand_efficiency_ln>
-1.03966580188085

> <r_i_glide_gscore>
-4.57577440504167

> <r_i_glide_lipo>
-2.96868655869902e-05

> <r_i_glide_hbond>
-0.757655299830772

> <r_i_glide_metal>
0

> <r_i_glide_rewards>
-0.200925628901418

> <r_i_glide_evdw>
-23.3607311248779

> <r_i_glide_ecoul>
-15.5761947631836

> <r_i_glide_erotb>
0.638850535935238

> <r_i_glide_esite>
-0.751548554657695

> <r_i_glide_emodel>
-59.6579566578758

> <r_i_glide_energy>
-38.9369258880615

> <r_i_glide_einternal>
8.77322387695313

> <i_i_glide_confnum>
137

> <i_i_glide_posenum>
278

> <r_i_glide_eff_state_penalty>
0

> <r_glide_res:A132_vdw>
-1.75522696041491

> <r_glide_res:A132_coul>
-33.8442582633196

> <r_glide_res:A132_hbond>
0

> <r_glide_res:A132_dist>
2.1553431758419

> <r_glide_res:A132_Eint>
-35.5994852237345

> <r_glide_res:A117_vdw>
-1.16909517982196

> <r_glide_res:A117_coul>
22.5844001842172

> <r_glide_res:A117_hbond>
0

> <r_glide_res:A117_dist>
3.09214591313283

> <r_glide_res:A117_Eint>
21.4153050043952

> <r_glide_res:A113_vdw>
-3.43608572997005

> <r_glide_res:A113_coul>
12.8526292203623

> <r_glide_res:A113_hbond>
0

> <r_glide_res:A113_dist>
2.23676178876292

> <r_glide_res:A113_Eint>
9.41654349039221

> <r_glide_res:A82_vdw>
0.158034979619275

> <r_glide_res:A82_coul>
-48.1123905791978

> <r_glide_res:A82_hbond>
-0.171651677864539

> <r_glide_res:A82_dist>
1.77772922618752

> <r_glide_res:A82_Eint>
-48.126007277443

> <r_glide_res:A42_vdw>
-0.0975591542852751

> <r_glide_res:A42_coul>
-54.8587021058266

> <r_glide_res:A42_hbond>
-0.359893581892228

> <r_glide_res:A42_dist>
1.90594696800835

> <r_glide_res:A42_Eint>
-55.3161548420041

> <r_glide_res:A16_vdw>
-0.670118510707023

> <r_glide_res:A16_coul>
-34.141190746261

> <r_glide_res:A16_hbond>
0

> <r_glide_res:A16_dist>
3.68230052124433

> <r_glide_res:A16_Eint>
-34.811309256968

> <s_m_source_file>
ligprep_Nicaido_neutral.maegz

> <i_m_source_file_index>
3

> <i_lp_mmshare_version>
58128

> <i_f3d_flags>
0

> <s_lp_Force_Field>
S-OPLS

> <r_lp_Energy>
32.161431

> <b_lp_Chiralities_Consistent>
1

> <s_lp_Variant>
Cefmetazole-1

> <s_epik_input>
bjFubmMobjFbQ0gzXSlTW0NIMl1DKD1DMkMoPU8pW09IXSlbQ0gyXVNbQ0BIXShOMjMpW0NAXShDMz1PKShPW0NIM10pW05IXUMoPU8pW0NIMl1TW0NIMl1DI04=

> <s_epik_cmdline>
J2VwaWtfcHl0aG9uJywgJy1waHQnLCAnMC4wJywgJy1waCcsICc3LjQnLCAnLW50JywgJy1tYScsICc1MDAnLCAnLWltYWUnLCAnPGluZmlsZS5tYWU+JywgJy1vbWFlJywgJzxvdXRmaWxlLm1hZT4n

> <r_lp_tautomer_probability>
1

> <r_epik_Ionization_Penalty>
  0.0000

> <r_epik_Ionization_Penalty_Charging>
  0.0000

> <r_epik_Ionization_Penalty_Neutral>
  0.0000

> <r_epik_State_Penalty>
  0.0000

> <r_epik_Charging_Adjusted_Penalty>
8.27330724987756e-06

> <i_epik_Tot_Q>
-1

> <i_epik_Tot_abs_Q>
1

> <s_epik_Chemistry_Notes>
This compound contains an acetal/aminal-like group ( X-CH(R)-Y where X, Y are N, S, or O) that may be acid/base labile, releasing an aldehyde.

> <s_m_subgroup_title>
glide-dock_Nicaido_neutral_pv1

> <s_m_subgroupid>
glide-dock_Nicaido_neutral_pv1

> <b_m_subgroup_collapsed>
0

$$$$
Penicillin N
                    3D
 Schrodinger Suite 2022-2.
 44 45  0  0  1  0            999 V2000
  -21.5453  -21.7542  -21.9497 C   0  0  0  0  0  0
  -20.5836  -21.7376  -23.1545 C   0  0  0  0  0  0
  -19.1480  -21.5240  -22.6298 C   0  0  0  0  0  0
  -20.7898  -23.0404  -24.0056 C   0  0  2  0  0  0
  -19.5478  -23.5971  -24.7355 C   0  0  0  0  0  0
  -19.0087  -22.8913  -25.6136 O   0  5  0  0  0  0
  -19.1688  -24.7491  -24.4129 O   0  0  0  0  0  0
  -21.7995  -22.6427  -24.9657 N   0  0  0  0  0  0
  -21.8725  -21.3158  -25.5504 C   0  0  1  0  0  0
  -23.3870  -21.5273  -25.7239 C   0  0  2  0  0  0
  -24.1641  -20.6303  -24.8638 N   0  0  0  0  0  0
  -25.4920  -20.6934  -24.6769 C   0  0  0  0  0  0
  -26.1285  -19.6400  -23.7590 C   0  0  0  0  0  0
  -27.4094  -20.1283  -23.0406 C   0  0  0  0  0  0
  -27.1437  -21.0400  -21.8236 C   0  0  0  0  0  0
  -28.3863  -21.8590  -21.3687 C   0  0  2  0  0  0
  -28.7690  -21.5481  -19.9735 N   0  3  0  0  0  0
  -28.1134  -23.3719  -21.5057 C   0  0  0  0  0  0
  -27.5234  -23.9495  -20.5616 O   0  5  0  0  0  0
  -28.4698  -23.9494  -22.5609 O   0  0  0  0  0  0
  -26.1949  -21.5495  -25.2132 O   0  0  0  0  0  0
  -23.1287  -22.9304  -25.1365 C   0  0  0  0  0  0
  -23.7878  -23.9031  -24.8322 O   0  0  0  0  0  0
  -21.0699  -20.3336  -24.2369 S   0  0  0  0  0  0
  -21.3124  -22.5726  -21.2678 H   0  0  0  0  0  0
  -21.4850  -20.8256  -21.3814 H   0  0  0  0  0  0
  -22.5823  -21.8725  -22.2647 H   0  0  0  0  0  0
  -18.8084  -22.3790  -22.0449 H   0  0  0  0  0  0
  -18.4353  -21.3685  -23.4401 H   0  0  0  0  0  0
  -19.0918  -20.6409  -21.9926 H   0  0  0  0  0  0
  -21.1852  -23.8397  -23.3769 H   0  0  0  0  0  0
  -21.3292  -21.2405  -26.4943 H   0  0  0  0  0  0
  -23.6905  -21.5080  -26.7722 H   0  0  0  0  0  0
  -23.6537  -19.8841  -24.4088 H   0  0  0  0  0  0
  -26.3732  -18.7787  -24.3826 H   0  0  0  0  0  0
  -25.4000  -19.2846  -23.0296 H   0  0  0  0  0  0
  -28.0593  -20.6368  -23.7542 H   0  0  0  0  0  0
  -27.9776  -19.2586  -22.7060 H   0  0  0  0  0  0
  -26.7643  -20.4251  -21.0053 H   0  0  0  0  0  0
  -26.3198  -21.7125  -22.0702 H   0  0  0  0  0  0
  -29.2498  -21.6057  -21.9863 H   0  0  0  0  0  0
  -29.6099  -22.0515  -19.7203 H   0  0  0  0  0  0
  -28.0241  -21.8322  -19.3546 H   0  0  0  0  0  0
  -28.9564  -20.5606  -19.8603 H   0  0  0  0  0  0
  1  2  1  0  0  0
  1 25  1  0  0  0
  1 26  1  0  0  0
  1 27  1  0  0  0
  2 24  1  0  0  0
  2  3  1  0  0  0
  2  4  1  0  0  0
  3 28  1  0  0  0
  3 29  1  0  0  0
  3 30  1  0  0  0
  4  5  1  0  0  0
  4  8  1  0  0  0
  4 31  1  0  0  0
  5  6  1  0  0  0
  5  7  2  0  0  0
  8 22  1  0  0  0
  8  9  1  0  0  0
  9 10  1  0  0  0
  9 24  1  0  0  0
  9 32  1  0  0  0
 10 11  1  0  0  0
 10 22  1  0  0  0
 10 33  1  0  0  0
 11 12  1  0  0  0
 11 34  1  0  0  0
 12 13  1  0  0  0
 12 21  2  0  0  0
 13 14  1  0  0  0
 13 35  1  0  0  0
 13 36  1  0  0  0
 14 15  1  0  0  0
 14 37  1  0  0  0
 14 38  1  0  0  0
 15 16  1  0  0  0
 15 39  1  0  0  0
 15 40  1  0  0  0
 16 17  1  0  0  0
 16 18  1  0  0  0
 16 41  1  0  0  0
 17 42  1  0  0  0
 17 43  1  0  0  0
 17 44  1  0  0  0
 18 19  1  0  0  0
 18 20  2  0  0  0
 22 23  2  0  0  0
M  CHG  3   6  -1  17   1  19  -1
M  END
> <s_m_entry_id>
27578

> <s_m_entry_name>
data_maestro.26

> <s_m_Source_Path>
C:\Users\olshana1\Git\GramNeg-Accumulation\Gram Negative Permeation - OmpF

> <s_m_Source_File>
data_maestro.csv

> <i_m_Source_File_Index>
26

> <s_m_job_name>
glide-dock_Nicaido_neutral

> <s_i_glide_gridfile>
3POX-grid

> <i_i_glide_lignum>
33

> <i_i_glide_rotatable_bonds>
8

> <r_i_docking_score>
-4.57324389978497

> <r_i_glide_ligand_efficiency>
-0.190551829157707

> <r_i_glide_ligand_efficiency_sa>
-0.549646586865718

> <r_i_glide_ligand_efficiency_ln>
-1.09458711770693

> <r_i_glide_gscore>
-4.57324389978497

> <r_i_glide_lipo>
0

> <r_i_glide_hbond>
-0.843762182188645

> <r_i_glide_metal>
0

> <r_i_glide_rewards>
-0.965514544335608

> <r_i_glide_evdw>
-16.1547546386719

> <r_i_glide_ecoul>
-15.784068107605

> <r_i_glide_erotb>
0.894795809723686

> <r_i_glide_esite>
-0.483415034910061

> <r_i_glide_emodel>
-55.6967918809435

> <r_i_glide_energy>
-31.9388227462769

> <r_i_glide_einternal>
6.93026542663574

> <i_i_glide_confnum>
104

> <i_i_glide_posenum>
303

> <r_i_glide_eff_state_penalty>
0

> <r_glide_res:A132_vdw>
0.579537468284912

> <r_glide_res:A132_coul>
-41.2239461964597

> <r_glide_res:A132_hbond>
-0.238669774121508

> <r_glide_res:A132_dist>
1.88744017158452

> <r_glide_res:A132_Eint>
-40.8830785022963

> <r_glide_res:A117_vdw>
-2.80437532476822

> <r_glide_res:A117_coul>
11.7688649157312

> <r_glide_res:A117_hbond>
0

> <r_glide_res:A117_dist>
2.61186464549742

> <r_glide_res:A117_Eint>
8.96448959096294

> <r_glide_res:A113_vdw>
-0.526534727819672

> <r_glide_res:A113_coul>
-14.2849538720718

> <r_glide_res:A113_hbond>
-0.114447862185907

> <r_glide_res:A113_dist>
2.27112388501339

> <r_glide_res:A113_Eint>
-14.9259364620774

> <r_glide_res:A82_vdw>
-0.9286829586773

> <r_glide_res:A82_coul>
-45.3792490429591

> <r_glide_res:A82_hbond>
-0.300475776080957

> <r_glide_res:A82_dist>
2.12954025856688

> <r_glide_res:A82_Eint>
-46.6084077777173

> <r_glide_res:A42_vdw>
0.606790800870971

> <r_glide_res:A42_coul>
-36.0383902248986

> <r_glide_res:A42_hbond>
-0.119571465277005

> <r_glide_res:A42_dist>
1.85294600679007

> <r_glide_res:A42_Eint>
-35.5511708893047

> <r_glide_res:A16_vdw>
-0.168285631708152

> <r_glide_res:A16_coul>
-17.0926914736805

> <r_glide_res:A16_hbond>
0

> <r_glide_res:A16_dist>
4.93142719412395

> <r_glide_res:A16_Eint>
-17.2609771053887

> <s_m_source_file>
ligprep_Nicaido_neutral.maegz

> <i_m_source_file_index>
26

> <i_lp_mmshare_version>
58128

> <i_f3d_flags>
0

> <s_lp_Force_Field>
S-OPLS

> <r_lp_Energy>
12.253328

> <b_lp_Chiralities_Consistent>
1

> <s_lp_Variant>
Penicillin N-1

> <s_epik_input>
W09IXUMoPU8pW0NASF0xQyhbQ0gzXSkoW0NIM10pU1tDQEBIXShOMTIpW0NAQEhdKEMyPU8pW05IXUMoPU8pW0NIMl1bQ0gyXVtDSDJdW0NASF0oW05IMl0pQyg9TylbT0hd

> <s_epik_cmdline>
J2VwaWtfcHl0aG9uJywgJy1waHQnLCAnMC4wJywgJy1waCcsICc3LjQnLCAnLW50JywgJy1tYScsICc1MDAnLCAnLWltYWUnLCAnPGluZmlsZS5tYWU+JywgJy1vbWFlJywgJzxvdXRmaWxlLm1hZT4n

> <r_lp_tautomer_probability>
1

> <r_epik_Ionization_Penalty>
  0.0034

> <r_epik_Ionization_Penalty_Charging>
  0.0034

> <r_epik_Ionization_Penalty_Neutral>
  0.0000

> <r_epik_State_Penalty>
  0.0000

> <r_epik_Charging_Adjusted_Penalty>
0.0034368723547391

> <i_epik_Tot_Q>
-1

> <i_epik_Tot_abs_Q>
3

> <s_epik_Chemistry_Notes>
This compound contains an acetal/aminal-like group ( X-CH(R)-Y where X, Y are N, S, or O) that may be acid/base labile, releasing an aldehyde.

> <s_m_subgroup_title>
glide-dock_Nicaido_neutral_pv1

> <s_m_subgroupid>
glide-dock_Nicaido_neutral_pv1

> <b_m_subgroup_collapsed>
0

$$$$
Carbenicillin
                    3D
 Schrodinger Suite 2022-2.
 42 44  0  0  1  0            999 V2000
  -22.6717  -22.7871  -20.7125 C   0  0  0  0  0  0
  -22.7828  -22.1785  -22.1254 C   0  0  0  0  0  0
  -23.6322  -23.0226  -23.1370 C   0  0  2  0  0  0
  -24.9626  -22.4792  -23.0026 N   0  0  0  0  0  0
  -25.1998  -21.0547  -22.8711 C   0  0  2  0  0  0
  -23.6964  -20.5897  -21.9480 S   0  0  0  0  0  0
  -26.5630  -21.3981  -22.2480 C   0  0  2  0  0  0
  -26.1985  -22.8641  -22.5373 C   0  0  0  0  0  0
  -26.7284  -23.9489  -22.4050 O   0  0  0  0  0  0
  -27.7292  -20.9149  -22.9984 N   0  0  0  0  0  0
  -28.0252  -21.0958  -24.3015 C   0  0  0  0  0  0
  -29.4550  -20.7355  -24.7653 C   0  0  2  0  0  0
  -30.4104  -20.3084  -23.6442 C   0  0  0  0  0  0
  -30.8917  -18.9807  -23.6173 C   0  0  0  0  0  0
  -31.7824  -18.5665  -22.6092 C   0  0  0  0  0  0
  -32.1927  -19.4707  -21.6134 C   0  0  0  0  0  0
  -31.7128  -20.7932  -21.6244 C   0  0  0  0  0  0
  -30.8297  -21.2127  -22.6373 C   0  0  0  0  0  0
  -30.0642  -21.9495  -25.5031 C   0  0  0  0  0  0
  -30.8760  -21.6878  -26.4134 O   0  5  0  0  0  0
  -29.7159  -23.1205  -25.2130 O   0  0  0  0  0  0
  -27.2147  -21.5494  -25.1174 O   0  0  0  0  0  0
  -23.5497  -24.5612  -23.0736 C   0  0  0  0  0  0
  -23.8775  -25.1494  -22.0212 O   0  5  0  0  0  0
  -23.1690  -25.1495  -24.1090 O   0  0  0  0  0  0
  -21.3745  -21.9112  -22.6829 C   0  0  0  0  0  0
  -22.0855  -23.7059  -20.7113 H   0  0  0  0  0  0
  -22.1851  -22.0947  -20.0250 H   0  0  0  0  0  0
  -23.6556  -23.0156  -20.3014 H   0  0  0  0  0  0
  -23.3323  -22.7407  -24.1478 H   0  0  0  0  0  0
  -25.2411  -20.5305  -23.8273 H   0  0  0  0  0  0
  -26.6018  -21.1483  -21.1871 H   0  0  0  0  0  0
  -28.4585  -20.4899  -22.4404 H   0  0  0  0  0  0
  -29.3589  -19.9193  -25.4827 H   0  0  0  0  0  0
  -30.5820  -18.2700  -24.3699 H   0  0  0  0  0  0
  -32.1454  -17.5499  -22.5951 H   0  0  0  0  0  0
  -32.8607  -19.1487  -20.8276 H   0  0  0  0  0  0
  -32.0132  -21.4790  -20.8450 H   0  0  0  0  0  0
  -30.4698  -22.2314  -22.6334 H   0  0  0  0  0  0
  -20.8229  -22.8406  -22.8258 H   0  0  0  0  0  0
  -21.4189  -21.4002  -23.6454 H   0  0  0  0  0  0
  -20.7954  -21.2810  -22.0073 H   0  0  0  0  0  0
  1  2  1  0  0  0
  1 27  1  0  0  0
  1 28  1  0  0  0
  1 29  1  0  0  0
  2  6  1  0  0  0
  2  3  1  0  0  0
  2 26  1  0  0  0
  3  4  1  0  0  0
  3 23  1  0  0  0
  3 30  1  0  0  0
  4  8  1  0  0  0
  4  5  1  0  0  0
  5  6  1  0  0  0
  5  7  1  0  0  0
  5 31  1  0  0  0
  7  8  1  0  0  0
  7 10  1  0  0  0
  7 32  1  0  0  0
  8  9  2  0  0  0
 10 11  1  0  0  0
 10 33  1  0  0  0
 11 12  1  0  0  0
 11 22  2  0  0  0
 12 13  1  0  0  0
 12 19  1  0  0  0
 12 34  1  0  0  0
 13 18  1  0  0  0
 13 14  2  0  0  0
 14 15  1  0  0  0
 14 35  1  0  0  0
 15 16  2  0  0  0
 15 36  1  0  0  0
 16 17  1  0  0  0
 16 37  1  0  0  0
 17 18  2  0  0  0
 17 38  1  0  0  0
 18 39  1  0  0  0
 19 20  1  0  0  0
 19 21  2  0  0  0
 23 24  1  0  0  0
 23 25  2  0  0  0
 26 40  1  0  0  0
 26 41  1  0  0  0
 26 42  1  0  0  0
M  CHG  2  20  -1  24  -1
M  END
> <s_m_entry_id>
27579

> <s_m_entry_name>
data_maestro.24

> <s_m_Source_Path>
C:\Users\olshana1\Git\GramNeg-Accumulation\Gram Negative Permeation - OmpF

> <s_m_Source_File>
data_maestro.csv

> <i_m_Source_File_Index>
24

> <s_m_job_name>
glide-dock_Nicaido_neutral

> <s_i_glide_gridfile>
3POX-grid

> <i_i_glide_lignum>
31

> <i_i_glide_rotatable_bonds>
6

> <r_i_docking_score>
-4.56798676430275

> <r_i_glide_ligand_efficiency>
-0.175691798627029

> <r_i_glide_ligand_efficiency_sa>
-0.520486262118728

> <r_i_glide_ligand_efficiency_ln>
-1.07277670280939

> <r_i_glide_gscore>
-4.56798676430275

> <r_i_glide_lipo>
0

> <r_i_glide_hbond>
-0.827809984738411

> <r_i_glide_metal>
0

> <r_i_glide_rewards>
-0.835055860837333

> <r_i_glide_evdw>
-14.7439041137695

> <r_i_glide_ecoul>
-14.2778425216675

> <r_i_glide_erotb>
0.409918473255716

> <r_i_glide_esite>
-0.436167808044125

> <r_i_glide_emodel>
-50.77704616922

> <r_i_glide_energy>
-29.021746635437

> <r_i_glide_einternal>
8.61582279205322

> <i_i_glide_confnum>
7

> <i_i_glide_posenum>
50

> <r_i_glide_eff_state_penalty>
0

> <r_glide_res:A132_vdw>
-0.421045915228799

> <r_glide_res:A132_coul>
-63.5704097254375

> <r_glide_res:A132_hbond>
-0.0110129905054967

> <r_glide_res:A132_dist>
2.42308534886658

> <r_glide_res:A132_Eint>
-64.0024686311718

> <r_glide_res:A117_vdw>
-2.34628978431186

> <r_glide_res:A117_coul>
40.6810026490179

> <r_glide_res:A117_hbond>
0

> <r_glide_res:A117_dist>
3.27975395272466

> <r_glide_res:A117_Eint>
38.334712864706

> <r_glide_res:A113_vdw>
-2.3677835726407

> <r_glide_res:A113_coul>
36.4702735390466

> <r_glide_res:A113_hbond>
0

> <r_glide_res:A113_dist>
2.52299155111414

> <r_glide_res:A113_Eint>
34.1024899664059

> <r_glide_res:A82_vdw>
-1.80147392132453

> <r_glide_res:A82_coul>
-73.3942022007929

> <r_glide_res:A82_hbond>
-0.16

> <r_glide_res:A82_dist>
1.86434427753831

> <r_glide_res:A82_Eint>
-75.3556761221174

> <r_glide_res:A42_vdw>
2.2771533213713

> <r_glide_res:A42_coul>
-82.66996834724

> <r_glide_res:A42_hbond>
-0.36

> <r_glide_res:A42_dist>
1.62960285294937

> <r_glide_res:A42_Eint>
-80.7528150258687

> <r_glide_res:A16_vdw>
1.66725058759564

> <r_glide_res:A16_coul>
-67.4390255166077

> <r_glide_res:A16_hbond>
-0.128976699294481

> <r_glide_res:A16_dist>
1.87856113218862

> <r_glide_res:A16_Eint>
-65.9007516283066

> <s_m_source_file>
ligprep_Nicaido_neutral.maegz

> <i_m_source_file_index>
24

> <i_lp_mmshare_version>
58128

> <i_f3d_flags>
0

> <s_lp_Force_Field>
S-OPLS

> <r_lp_Energy>
37.112724

> <b_lp_Chiralities_Consistent>
1

> <s_lp_Variant>
Carbenicillin-1

> <s_epik_input>
W09IXUMoPU8pW0NAQEhdMUMoW0NIM10pKFtDSDNdKVNbQ0BASF0oTjEyKVtDQEhdKEMyPU8pW05IXUMoPU8pW0NAQEhdKEMoPU8pW09IXSljM1tjSF1bY0hdW2NIXVtjSF1bY0hdMw==

> <s_epik_cmdline>
J2VwaWtfcHl0aG9uJywgJy1waHQnLCAnMC4wJywgJy1waCcsICc3LjQnLCAnLW50JywgJy1tYScsICc1MDAnLCAnLWltYWUnLCAnPGluZmlsZS5tYWU+JywgJy1vbWFlJywgJzxvdXRmaWxlLm1hZT4n

> <r_lp_tautomer_probability>
1

> <r_epik_Ionization_Penalty>
  0.0000

> <r_epik_Ionization_Penalty_Charging>
  0.0000

> <r_epik_Ionization_Penalty_Neutral>
  0.0000

> <r_epik_State_Penalty>
  0.0000

> <r_epik_Charging_Adjusted_Penalty>
4.98035685666923e-05

> <i_epik_Tot_Q>
-2

> <i_epik_Tot_abs_Q>
2

> <s_epik_Chemistry_Notes>
This compound contains an acetal/aminal-like group ( X-CH(R)-Y where X, Y are N, S, or O) that may be acid/base labile, releasing an aldehyde.

> <s_m_subgroup_title>
glide-dock_Nicaido_neutral_pv1

> <s_m_subgroupid>
glide-dock_Nicaido_neutral_pv1

> <b_m_subgroup_collapsed>
0

$$$$
Ceftizoxime
                    3D
 Schrodinger Suite 2022-2.
 37 39  0  0  1  0            999 V2000
  -23.7593  -24.6704  -17.5537 C   0  0  0  0  0  0
  -24.3027  -23.4395  -17.9853 O   0  0  0  0  0  0
  -25.5648  -23.7003  -18.5367 N   0  0  0  0  0  0
  -26.1838  -22.6518  -18.9233 C   0  0  0  0  0  0
  -25.6747  -21.2536  -18.7551 C   0  0  0  0  0  0
  -25.2614  -20.7804  -17.5302 C   0  0  0  0  0  0
  -24.6531  -19.1499  -17.6169 S   0  0  0  0  0  0
  -25.0132  -19.1557  -19.3345 C   0  0  0  0  0  0
  -24.7689  -18.0557  -20.1328 N   0  0  0  0  0  0
  -25.5231  -20.3044  -19.7773 N   0  0  0  0  0  0
  -27.5252  -22.8226  -19.6238 C   0  0  0  0  0  0
  -28.1317  -21.6852  -20.0138 N   0  0  0  0  0  0
  -29.3217  -21.5823  -20.8660 C   0  0  1  0  0  0
  -29.2939  -20.2916  -21.7163 C   0  0  1  0  0  0
  -29.4792  -21.1420  -22.8789 N   0  0  0  0  0  0
  -29.2143  -22.3320  -22.2213 C   0  0  0  0  0  0
  -28.9948  -23.4647  -22.6056 O   0  0  0  0  0  0
  -29.6367  -20.6176  -24.1728 C   0  0  0  0  0  0
  -29.2852  -21.5496  -25.3739 C   0  0  0  0  0  0
  -29.9690  -21.4224  -26.4134 O   0  5  0  0  0  0
  -28.3367  -22.3496  -25.2134 O   0  0  0  0  0  0
  -30.0185  -19.3387  -24.3875 C   0  0  0  0  0  0
  -30.3662  -18.3154  -23.3167 C   0  0  0  0  0  0
  -30.6392  -19.0566  -21.6855 S   0  0  0  0  0  0
  -27.9743  -23.9496  -19.8553 O   0  0  0  0  0  0
  -22.7884  -24.4949  -17.0908 H   0  0  0  0  0  0
  -24.4058  -25.1440  -16.8137 H   0  0  0  0  0  0
  -23.6168  -25.3554  -18.3908 H   0  0  0  0  0  0
  -25.2748  -21.2985  -16.5815 H   0  0  0  0  0  0
  -25.2396  -17.9952  -21.0262 H   0  0  0  0  0  0
  -24.5830  -17.1687  -19.6895 H   0  0  0  0  0  0
  -27.6953  -20.8074  -19.7623 H   0  0  0  0  0  0
  -30.2687  -21.7231  -20.3484 H   0  0  0  0  0  0
  -28.3168  -19.8030  -21.7487 H   0  0  0  0  0  0
  -30.0775  -18.9718  -25.4022 H   0  0  0  0  0  0
  -29.5684  -17.5777  -23.2499 H   0  0  0  0  0  0
  -31.2692  -17.7777  -23.6062 H   0  0  0  0  0  0
  1  2  1  0  0  0
  1 26  1  0  0  0
  1 27  1  0  0  0
  1 28  1  0  0  0
  2  3  1  0  0  0
  3  4  2  3  0  0
  4  5  1  0  0  0
  4 11  1  0  0  0
  5 10  1  0  0  0
  5  6  2  0  0  0
  6  7  1  0  0  0
  6 29  1  0  0  0
  7  8  1  0  0  0
  8  9  1  0  0  0
  8 10  2  0  0  0
  9 30  1  0  0  0
  9 31  1  0  0  0
 11 12  1  0  0  0
 11 25  2  0  0  0
 12 13  1  0  0  0
 12 32  1  0  0  0
 13 16  1  0  0  0
 13 14  1  0  0  0
 13 33  1  0  0  0
 14 24  1  0  0  0
 14 15  1  0  0  0
 14 34  1  0  0  0
 15 16  1  0  0  0
 15 18  1  0  0  0
 16 17  2  0  0  0
 18 19  1  0  0  0
 18 22  2  0  0  0
 19 20  1  0  0  0
 19 21  2  0  0  0
 22 23  1  0  0  0
 22 35  1  0  0  0
 23 24  1  0  0  0
 23 36  1  0  0  0
 23 37  1  0  0  0
M  CHG  1  20  -1
M  END
> <s_m_entry_id>
27580

> <s_m_entry_name>
data_maestro.5

> <s_m_Source_Path>
C:\Users\olshana1\Git\GramNeg-Accumulation\Gram Negative Permeation - OmpF

> <s_m_Source_File>
data_maestro.csv

> <i_m_Source_File_Index>
5

> <s_m_job_name>
glide-dock_Nicaido_neutral

> <s_i_glide_gridfile>
3POX-grid

> <i_i_glide_lignum>
5

> <i_i_glide_rotatable_bonds>
6

> <r_i_docking_score>
-4.56568629777641

> <r_i_glide_ligand_efficiency>
-0.182627451911056

> <r_i_glide_ligand_efficiency_sa>
-0.53400590829958

> <r_i_glide_ligand_efficiency_ln>
-1.08220447515045

> <r_i_glide_gscore>
-4.56568629777641

> <r_i_glide_lipo>
0

> <r_i_glide_hbond>
-0.729913961158588

> <r_i_glide_metal>
0

> <r_i_glide_rewards>
-0.801148715596925

> <r_i_glide_evdw>
-29.8952045440674

> <r_i_glide_ecoul>
-10.757924079895

> <r_i_glide_erotb>
0.664075194683877

> <r_i_glide_esite>
-0.590249976517153

> <r_i_glide_emodel>
-61.1204177613821

> <r_i_glide_energy>
-40.6531286239624

> <r_i_glide_einternal>
3.10442018508911

> <i_i_glide_confnum>
27

> <i_i_glide_posenum>
288

> <r_i_glide_eff_state_penalty>
0

> <r_glide_res:A132_vdw>
-1.45265061030785

> <r_glide_res:A132_coul>
-34.010149586487

> <r_glide_res:A132_hbond>
-0.16

> <r_glide_res:A132_dist>
1.88055429813139

> <r_glide_res:A132_Eint>
-35.6228001967949

> <r_glide_res:A117_vdw>
-3.33343450685312

> <r_glide_res:A117_coul>
22.7904261297582

> <r_glide_res:A117_hbond>
0

> <r_glide_res:A117_dist>
2.47283623475063

> <r_glide_res:A117_Eint>
19.4569916229051

> <r_glide_res:A113_vdw>
-3.25601266834148

> <r_glide_res:A113_coul>
18.6887496829826

> <r_glide_res:A113_hbond>
0

> <r_glide_res:A113_dist>
2.42488336715641

> <r_glide_res:A113_Eint>
15.4327370146412

> <r_glide_res:A82_vdw>
-1.66831033746722

> <r_glide_res:A82_coul>
-39.8641820884394

> <r_glide_res:A82_hbond>
-0.0220660874286319

> <r_glide_res:A82_dist>
2.44483478142842

> <r_glide_res:A82_Eint>
-41.5545585133353

> <r_glide_res:A42_vdw>
0.608104542957677

> <r_glide_res:A42_coul>
-52.5753522764462

> <r_glide_res:A42_hbond>
-0.347847873729956

> <r_glide_res:A42_dist>
1.88022769915179

> <r_glide_res:A42_Eint>
-52.3150956072185

> <r_glide_res:A16_vdw>
0.88850911429942

> <r_glide_res:A16_coul>
-48.6815564262727

> <r_glide_res:A16_hbond>
-0.2

> <r_glide_res:A16_dist>
1.7562093732504

> <r_glide_res:A16_Eint>
-47.9930473119733

> <s_m_source_file>
ligprep_Nicaido_neutral.maegz

> <i_m_source_file_index>
5

> <i_lp_mmshare_version>
58128

> <i_f3d_flags>
0

> <s_lp_Force_Field>
S-OPLS

> <r_lp_Energy>
52.616387

> <b_lp_Chiralities_Consistent>
1

> <s_lp_Variant>
Ceftizoxime-1

> <s_epik_input>
W05IMl1jKG4xKXNbY0hdYzEvQyg9TlxPW0NIM10pQyg9TylbTkhdW0NAQEhdMkMoPU8pTihbQ0BIXTIzKUMoQyg9TylbT0hdKT1bQ0hdW0NIMl1TMw==

> <s_epik_cmdline>
J2VwaWtfcHl0aG9uJywgJy1waHQnLCAnMC4wJywgJy1waCcsICc3LjQnLCAnLW50JywgJy1tYScsICc1MDAnLCAnLWltYWUnLCAnPGluZmlsZS5tYWU+JywgJy1vbWFlJywgJzxvdXRmaWxlLm1hZT4n

> <r_lp_tautomer_probability>
1

> <r_epik_Ionization_Penalty>
  0.0005

> <r_epik_Ionization_Penalty_Charging>
  0.0000

> <r_epik_Ionization_Penalty_Neutral>
  0.0005

> <r_epik_State_Penalty>
  0.0000

> <r_epik_Charging_Adjusted_Penalty>
4.86746471452517e-05

> <i_epik_Tot_Q>
-1

> <i_epik_Tot_abs_Q>
1

> <s_epik_Chemistry_Notes>
This compound has an imine and may undergo hydrolysis. This compound contains an acetal/aminal-like group ( X-CH(R)-Y where X, Y are N, S, or O) that may be acid/base labile, releasing an aldehyde.

> <s_m_subgroup_title>
glide-dock_Nicaido_neutral_pv1

> <s_m_subgroupid>
glide-dock_Nicaido_neutral_pv1

> <b_m_subgroup_collapsed>
0

$$$$
Cefazolin
                    3D
 Schrodinger Suite 2022-2.
 42 45  0  0  1  0            999 V2000
  -35.6462  -15.0100  -23.9941 C   0  0  0  0  0  0
  -34.9383  -16.2593  -24.3906 C   0  0  0  0  0  0
  -34.5557  -16.4970  -25.6494 N   0  0  0  0  0  0
  -33.8884  -17.7068  -25.7730 N   0  0  0  0  0  0
  -33.7793  -18.3435  -24.6008 C   0  0  0  0  0  0
  -34.5416  -17.5368  -23.2443 S   0  0  0  0  0  0
  -32.9504  -19.8769  -24.3816 S   0  0  0  0  0  0
  -31.3532  -19.4243  -25.1196 C   0  0  0  0  0  0
  -30.1847  -19.7235  -24.1869 C   0  0  0  0  0  0
  -29.3363  -20.7838  -24.3201 C   0  0  0  0  0  0
  -28.2600  -20.9926  -23.4329 N   0  0  0  0  0  0
  -27.7628  -19.9541  -22.5475 C   0  0  2  0  0  0
  -26.7826  -20.9946  -21.9758 C   0  0  2  0  0  0
  -27.2639  -21.9095  -23.1326 C   0  0  0  0  0  0
  -26.9398  -22.9738  -23.6200 O   0  0  0  0  0  0
  -27.1669  -21.4339  -20.6351 N   0  0  0  0  0  0
  -26.7064  -22.5346  -20.0259 C   0  0  0  0  0  0
  -27.1152  -22.7242  -18.5609 C   0  0  0  0  0  0
  -27.5918  -24.0667  -18.2809 N   0  0  0  0  0  0
  -28.7598  -24.4892  -17.7956 C   0  0  0  0  0  0
  -28.7686  -25.8035  -17.6134 N   0  0  0  0  0  0
  -27.4986  -26.1858  -18.0134 N   0  0  0  0  0  0
  -26.7967  -25.1617  -18.4133 N   0  0  0  0  0  0
  -25.9780  -23.3577  -20.5882 O   0  0  0  0  0  0
  -29.1702  -19.2798  -21.6205 S   0  0  0  0  0  0
  -30.0703  -18.6837  -23.0685 C   0  0  0  0  0  0
  -29.5355  -21.9047  -25.3992 C   0  0  0  0  0  0
  -29.5690  -23.0915  -25.0015 O   0  5  0  0  0  0
  -29.5692  -21.5482  -26.5978 O   0  0  0  0  0  0
  -34.9280  -14.2809  -23.6153 H   0  0  0  0  0  0
  -36.1718  -14.5757  -24.8463 H   0  0  0  0  0  0
  -36.3760  -15.2261  -23.2135 H   0  0  0  0  0  0
  -31.3215  -18.3576  -25.3445 H   0  0  0  0  0  0
  -31.2822  -19.9174  -26.0837 H   0  0  0  0  0  0
  -27.2580  -19.1685  -23.1159 H   0  0  0  0  0  0
  -25.7458  -20.6637  -22.0474 H   0  0  0  0  0  0
  -27.7983  -20.8220  -20.1314 H   0  0  0  0  0  0
  -27.8950  -22.0116  -18.2850 H   0  0  0  0  0  0
  -26.2582  -22.5217  -17.9182 H   0  0  0  0  0  0
  -29.5768  -23.8292  -17.5517 H   0  0  0  0  0  0
  -29.5750  -17.7947  -23.4603 H   0  0  0  0  0  0
  -31.0597  -18.3735  -22.7316 H   0  0  0  0  0  0
  1  2  1  0  0  0
  1 30  1  0  0  0
  1 31  1  0  0  0
  1 32  1  0  0  0
  2  6  1  0  0  0
  2  3  2  0  0  0
  3  4  1  0  0  0
  4  5  2  0  0  0
  5  6  1  0  0  0
  5  7  1  0  0  0
  7  8  1  0  0  0
  8  9  1  0  0  0
  8 33  1  0  0  0
  8 34  1  0  0  0
  9 26  1  0  0  0
  9 10  2  0  0  0
 10 11  1  0  0  0
 10 27  1  0  0  0
 11 14  1  0  0  0
 11 12  1  0  0  0
 12 13  1  0  0  0
 12 25  1  0  0  0
 12 35  1  0  0  0
 13 14  1  0  0  0
 13 16  1  0  0  0
 13 36  1  0  0  0
 14 15  2  0  0  0
 16 17  1  0  0  0
 16 37  1  0  0  0
 17 18  1  0  0  0
 17 24  2  0  0  0
 18 19  1  0  0  0
 18 38  1  0  0  0
 18 39  1  0  0  0
 19 23  1  0  0  0
 19 20  1  0  0  0
 20 21  2  0  0  0
 20 40  1  0  0  0
 21 22  1  0  0  0
 22 23  2  0  0  0
 25 26  1  0  0  0
 26 41  1  0  0  0
 26 42  1  0  0  0
 27 28  1  0  0  0
 27 29  2  0  0  0
M  CHG  1  28  -1
M  END
> <s_m_entry_id>
27581

> <s_m_entry_name>
data_maestro.2

> <s_m_Source_Path>
C:\Users\olshana1\Git\GramNeg-Accumulation\Gram Negative Permeation - OmpF

> <s_m_Source_File>
data_maestro.csv

> <i_m_Source_File_Index>
2

> <s_m_job_name>
glide-dock_Nicaido_neutral

> <s_i_glide_gridfile>
3POX-grid

> <i_i_glide_lignum>
2

> <i_i_glide_rotatable_bonds>
8

> <r_i_docking_score>
-4.56357214554624

> <r_i_glide_ligand_efficiency>
-0.157364556742974

> <r_i_glide_ligand_efficiency_sa>
-0.483473774905367

> <r_i_glide_ligand_efficiency_ln>
-1.04494229912526

> <r_i_glide_gscore>
-4.56357214554624

> <r_i_glide_lipo>
-0.0853499516313238

> <r_i_glide_hbond>
-0.576633065274616

> <r_i_glide_metal>
0

> <r_i_glide_rewards>
-0.316463552120161

> <r_i_glide_evdw>
-33.9180335998535

> <r_i_glide_ecoul>
-11.3489799499512

> <r_i_glide_erotb>
0.585623573400065

> <r_i_glide_esite>
-0.772500477434854

> <r_i_glide_emodel>
-68.4067883431813

> <r_i_glide_energy>
-45.2670135498047

> <r_i_glide_einternal>
4.54498672485352

> <i_i_glide_confnum>
5

> <i_i_glide_posenum>
269

> <r_i_glide_eff_state_penalty>
0

> <r_glide_res:A132_vdw>
-1.41523865546688

> <r_glide_res:A132_coul>
-34.3455671906913

> <r_glide_res:A132_hbond>
-0.0451331270795832

> <r_glide_res:A132_dist>
2.38716718230104

> <r_glide_res:A132_Eint>
-35.8059389732378

> <r_glide_res:A117_vdw>
-3.27510472288487

> <r_glide_res:A117_coul>
19.0400738320982

> <r_glide_res:A117_hbond>
0

> <r_glide_res:A117_dist>
2.48117665397893

> <r_glide_res:A117_Eint>
15.7649691092133

> <r_glide_res:A113_vdw>
-3.15778727628834

> <r_glide_res:A113_coul>
13.8044376134618

> <r_glide_res:A113_hbond>
0

> <r_glide_res:A113_dist>
2.54770541415771

> <r_glide_res:A113_Eint>
10.6466503371734

> <r_glide_res:A82_vdw>
-1.80123544068503

> <r_glide_res:A82_coul>
-41.9518912917296

> <r_glide_res:A82_hbond>
-0.0583968897101348

> <r_glide_res:A82_dist>
2.30152358970103

> <r_glide_res:A82_Eint>
-43.8115236221248

> <r_glide_res:A42_vdw>
0.347486366586717

> <r_glide_res:A42_coul>
-51.7835180700903

> <r_glide_res:A42_hbond>
-0.273103048484898

> <r_glide_res:A42_dist>
1.76515384737327

> <r_glide_res:A42_Eint>
-51.7091347519885

> <r_glide_res:A16_vdw>
0.464563145532323

> <r_glide_res:A16_coul>
-49.1695975543891

> <r_glide_res:A16_hbond>
-0.2

> <r_glide_res:A16_dist>
1.72897179860599

> <r_glide_res:A16_Eint>
-48.9050344088567

> <s_m_source_file>
ligprep_Nicaido_neutral.maegz

> <i_m_source_file_index>
2

> <i_lp_mmshare_version>
58128

> <i_f3d_flags>
0

> <s_lp_Force_Field>
S-OPLS

> <r_lp_Energy>
37.420105

> <b_lp_Chiralities_Consistent>
1

> <s_lp_Variant>
Cefazolin-1

> <s_epik_input>
W0NIM11jMW5uYyhzMSlTW0NIMl1DKD1DMkMoPU8pW09IXSlbQ0gyXVNbQ0BIXShOMjMpW0NASF0oQzM9TylbTkhdQyg9TylbQ0gyXW40W2NIXW5ubjQ=

> <s_epik_cmdline>
J2VwaWtfcHl0aG9uJywgJy1waHQnLCAnMC4wJywgJy1waCcsICc3LjQnLCAnLW50JywgJy1tYScsICc1MDAnLCAnLWltYWUnLCAnPGluZmlsZS5tYWU+JywgJy1vbWFlJywgJzxvdXRmaWxlLm1hZT4n

> <r_lp_tautomer_probability>
1

> <r_epik_Ionization_Penalty>
  0.0000

> <r_epik_Ionization_Penalty_Charging>
  0.0000

> <r_epik_Ionization_Penalty_Neutral>
  0.0000

> <r_epik_State_Penalty>
  0.0000

> <r_epik_Charging_Adjusted_Penalty>
8.33047029083912e-06

> <i_epik_Tot_Q>
-1

> <i_epik_Tot_abs_Q>
1

> <s_epik_Chemistry_Notes>
This compound contains an acetal/aminal-like group ( X-CH(R)-Y where X, Y are N, S, or O) that may be acid/base labile, releasing an aldehyde.

> <s_m_subgroup_title>
glide-dock_Nicaido_neutral_pv1

> <s_m_subgroupid>
glide-dock_Nicaido_neutral_pv1

> <b_m_subgroup_collapsed>
0

$$$$
Moxalactam
                    3D
 Schrodinger Suite 2022-2.
 54 57  0  0  1  0            999 V2000
  -25.8524  -22.0508  -17.3610 C   0  0  0  0  0  0
  -25.0417  -23.2236  -17.6152 N   0  0  0  0  0  0
  -23.8318  -23.5935  -17.1717 C   0  0  0  0  0  0
  -22.8466  -22.6253  -16.0670 S   0  0  0  0  0  0
  -21.1633  -23.2552  -16.4174 C   0  0  0  0  0  0
  -20.7568  -23.1910  -17.8904 C   0  0  0  0  0  0
  -20.3421  -24.2300  -18.6700 C   0  0  0  0  0  0
  -20.0912  -25.7268  -18.2148 C   0  0  0  0  0  0
  -19.1798  -26.3482  -18.8129 O   0  5  0  0  0  0
  -20.7692  -26.1908  -17.2723 O   0  0  0  0  0  0
  -20.0576  -23.9422  -20.0159 N   0  0  0  0  0  0
  -19.8833  -22.5760  -20.4831 C   0  0  2  0  0  0
  -20.9272  -21.8080  -19.9027 O   0  0  0  0  0  0
  -20.8386  -21.7813  -18.4854 C   0  0  0  0  0  0
  -20.1567  -23.1132  -21.8996 C   0  0  1  0  0  0
  -19.9053  -24.5197  -21.2661 C   0  0  0  0  0  0
  -19.7222  -25.6552  -21.6547 O   0  0  0  0  0  0
  -21.5324  -22.8010  -22.3148 N   0  0  0  0  0  0
  -22.4017  -23.5618  -22.9962 C   0  0  0  0  0  0
  -23.6663  -22.8202  -23.4870 C   0  0  2  0  0  0
  -24.7639  -23.7795  -24.0088 C   0  0  0  0  0  0
  -24.4695  -24.7001  -24.8121 O   0  5  0  0  0  0
  -25.9308  -23.5495  -23.6131 O   0  0  0  0  0  0
  -23.2818  -21.7995  -24.5576 C   0  0  0  0  0  0
  -23.3352  -20.4280  -24.2313 C   0  0  0  0  0  0
  -22.8916  -19.4628  -25.1494 C   0  0  0  0  0  0
  -22.4067  -19.8508  -26.4091 C   0  0  0  0  0  0
  -21.9687  -18.8901  -27.2686 O   0  0  0  0  0  0
  -22.3690  -21.2148  -26.7584 C   0  0  0  0  0  0
  -22.8008  -22.1864  -25.8336 C   0  0  0  0  0  0
  -22.1842  -24.7499  -23.2253 O   0  0  0  0  0  0
  -19.1444  -22.7501  -22.8402 O   0  0  0  0  0  0
  -19.2460  -23.3196  -24.1386 C   0  0  0  0  0  0
  -23.5248  -24.7967  -17.6371 N   0  0  0  0  0  0
  -24.6037  -25.1465  -18.4190 N   0  0  0  0  0  0
  -25.5091  -24.2151  -18.4142 N   0  0  0  0  0  0
  -25.3068  -21.3227  -16.7611 H   0  0  0  0  0  0
  -26.7524  -22.3500  -16.8220 H   0  0  0  0  0  0
  -26.1403  -21.5859  -18.3043 H   0  0  0  0  0  0
  -20.4605  -22.6444  -15.8508 H   0  0  0  0  0  0
  -21.0895  -24.2503  -15.9951 H   0  0  0  0  0  0
  -18.8730  -22.1944  -20.3161 H   0  0  0  0  0  0
  -21.7152  -21.2445  -18.1281 H   0  0  0  0  0  0
  -19.9659  -21.2077  -18.1724 H   0  0  0  0  0  0
  -21.8200  -21.8530  -22.1169 H   0  0  0  0  0  0
  -24.0845  -22.2946  -22.6266 H   0  0  0  0  0  0
  -23.6936  -20.1047  -23.2649 H   0  0  0  0  0  0
  -22.9247  -18.4156  -24.8836 H   0  0  0  0  0  0
  -21.7288  -19.1899  -28.1342 H   0  0  0  0  0  0
  -21.9964  -21.5267  -27.7235 H   0  0  0  0  0  0
  -22.7383  -23.2303  -26.1036 H   0  0  0  0  0  0
  -18.3664  -23.0468  -24.7210 H   0  0  0  0  0  0
  -20.1179  -22.9422  -24.6727 H   0  0  0  0  0  0
  -19.2973  -24.4077  -24.1031 H   0  0  0  0  0  0
  1  2  1  0  0  0
  1 37  1  0  0  0
  1 38  1  0  0  0
  1 39  1  0  0  0
  2 36  1  0  0  0
  2  3  1  0  0  0
  3  4  1  0  0  0
  3 34  2  0  0  0
  4  5  1  0  0  0
  5  6  1  0  0  0
  5 40  1  0  0  0
  5 41  1  0  0  0
  6 14  1  0  0  0
  6  7  2  0  0  0
  7  8  1  0  0  0
  7 11  1  0  0  0
  8  9  1  0  0  0
  8 10  2  0  0  0
 11 16  1  0  0  0
 11 12  1  0  0  0
 12 13  1  0  0  0
 12 15  1  0  0  0
 12 42  1  0  0  0
 13 14  1  0  0  0
 14 43  1  0  0  0
 14 44  1  0  0  0
 15 16  1  0  0  0
 15 18  1  0  0  0
 15 32  1  0  0  0
 16 17  2  0  0  0
 18 19  1  0  0  0
 18 45  1  0  0  0
 19 20  1  0  0  0
 19 31  2  0  0  0
 20 21  1  0  0  0
 20 24  1  0  0  0
 20 46  1  0  0  0
 21 22  1  0  0  0
 21 23  2  0  0  0
 24 30  1  0  0  0
 24 25  2  0  0  0
 25 26  1  0  0  0
 25 47  1  0  0  0
 26 27  2  0  0  0
 26 48  1  0  0  0
 27 28  1  0  0  0
 27 29  1  0  0  0
 28 49  1  0  0  0
 29 30  2  0  0  0
 29 50  1  0  0  0
 30 51  1  0  0  0
 32 33  1  0  0  0
 33 52  1  0  0  0
 33 53  1  0  0  0
 33 54  1  0  0  0
 34 35  1  0  0  0
 35 36  2  0  0  0
M  CHG  2   9  -1  22  -1
M  END
> <s_m_entry_id>
27582

> <s_m_entry_name>
data_maestro.20

> <s_m_Source_Path>
C:\Users\olshana1\Git\GramNeg-Accumulation\Gram Negative Permeation - OmpF

> <s_m_Source_File>
data_maestro.csv

> <i_m_Source_File_Index>
20

> <s_m_job_name>
glide-dock_Nicaido_neutral

> <s_i_glide_gridfile>
3POX-grid

> <i_i_glide_lignum>
25

> <i_i_glide_rotatable_bonds>
11

> <r_i_docking_score>
-4.56308054769004

> <r_i_glide_ligand_efficiency>
-0.126752237435834

> <r_i_glide_ligand_efficiency_sa>
-0.41852666614781

> <r_i_glide_ligand_efficiency_ln>
-0.995540895316349

> <r_i_glide_gscore>
-4.56308054769004

> <r_i_glide_lipo>
-0.0744798592828572

> <r_i_glide_hbond>
-0.761001190102886

> <r_i_glide_metal>
0

> <r_i_glide_rewards>
0.00387489393908557

> <r_i_glide_evdw>
-29.9710159301758

> <r_i_glide_ecoul>
-14.3595085144043

> <r_i_glide_erotb>
0.534860792752126

> <r_i_glide_esite>
-0.613858111326071

> <r_i_glide_emodel>
-67.185676633683

> <r_i_glide_energy>
-44.3305244445801

> <r_i_glide_einternal>
18.336124420166

> <i_i_glide_confnum>
12

> <i_i_glide_posenum>
177

> <r_i_glide_eff_state_penalty>
0

> <r_glide_res:A132_vdw>
-2.03431265788431

> <r_glide_res:A132_coul>
-56.170862991514

> <r_glide_res:A132_hbond>
0

> <r_glide_res:A132_dist>
2.89114994920565

> <r_glide_res:A132_Eint>
-58.2051756493983

> <r_glide_res:A117_vdw>
-1.19660331375313

> <r_glide_res:A117_coul>
35.7712125357529

> <r_glide_res:A117_hbond>
0

> <r_glide_res:A117_dist>
2.39089757333337

> <r_glide_res:A117_Eint>
34.5746092219998

> <r_glide_res:A113_vdw>
-0.242648932662038

> <r_glide_res:A113_coul>
31.1710365216376

> <r_glide_res:A113_hbond>
0

> <r_glide_res:A113_dist>
4.69857885044674

> <r_glide_res:A113_Eint>
30.9283875889756

> <r_glide_res:A82_vdw>
0.693781024841165

> <r_glide_res:A82_coul>
-64.0175512213642

> <r_glide_res:A82_hbond>
-0.134744904818693

> <r_glide_res:A82_dist>
2.1256433178395

> <r_glide_res:A82_Eint>
-63.4585151013418

> <r_glide_res:A42_vdw>
-1.03664630302527

> <r_glide_res:A42_coul>
-54.0346300852169

> <r_glide_res:A42_hbond>
0

> <r_glide_res:A42_dist>
2.69391960449375

> <r_glide_res:A42_Eint>
-55.0712763882422

> <r_glide_res:A16_vdw>
-0.0860484495028878

> <r_glide_res:A16_coul>
-30.9784307483615

> <r_glide_res:A16_hbond>
0

> <r_glide_res:A16_dist>
6.71116166436054

> <r_glide_res:A16_Eint>
-31.0644791978644

> <s_m_source_file>
ligprep_Nicaido_neutral.maegz

> <i_m_source_file_index>
20

> <i_lp_mmshare_version>
58128

> <i_f3d_flags>
0

> <s_lp_Force_Field>
S-OPLS

> <r_lp_Energy>
52.146636

> <b_lp_Chiralities_Consistent>
1

> <s_lp_Variant>
Moxalactam-1

> <s_epik_input>
bjFubmMobjFbQ0gzXSlTW0NIMl1DKD1DMkMoPU8pW09IXSlbQ0gyXU9bQ0BASF0oTjIzKVtDQF0oQzM9TykoT1tDSDNdKVtOSF1DKD1PKVtDQEhdKEMoPU8pW09IXSljNFtjSF1bY0hdYyhbT0hdKVtjSF1bY0hdNA==

> <s_epik_cmdline>
J2VwaWtfcHl0aG9uJywgJy1waHQnLCAnMC4wJywgJy1waCcsICc3LjQnLCAnLW50JywgJy1tYScsICc1MDAnLCAnLWltYWUnLCAnPGluZmlsZS5tYWU+JywgJy1vbWFlJywgJzxvdXRmaWxlLm1hZT4n

> <r_lp_tautomer_probability>
1

> <r_epik_Ionization_Penalty>
  0.0029

> <r_epik_Ionization_Penalty_Charging>
  0.0001

> <r_epik_Ionization_Penalty_Neutral>
  0.0029

> <r_epik_State_Penalty>
  0.0000

> <r_epik_Charging_Adjusted_Penalty>
5.78268703870383e-05

> <i_epik_Tot_Q>
-2

> <i_epik_Tot_abs_Q>
2

> <s_epik_Chemistry_Notes>
This compound contains an acetal/aminal-like group ( X-CH(R)-Y where X, Y are N, S, or O) that may be acid/base labile, releasing an aldehyde.

> <s_m_subgroup_title>
glide-dock_Nicaido_neutral_pv1

> <s_m_subgroupid>
glide-dock_Nicaido_neutral_pv1

> <b_m_subgroup_collapsed>
0

$$$$
Moxalactam
                    3D
 Schrodinger Suite 2022-2.
 54 57  0  0  1  0            999 V2000
  -32.7689  -16.5729  -25.7055 C   0  0  0  0  0  0
  -31.8165  -17.2163  -26.5892 N   0  0  0  0  0  0
  -30.7231  -17.9496  -26.3357 C   0  0  0  0  0  0
  -30.1837  -18.3496  -24.7010 S   0  0  0  0  0  0
  -28.7817  -19.4380  -25.0845 C   0  0  0  0  0  0
  -28.3260  -20.2282  -23.8635 C   0  0  0  0  0  0
  -28.6834  -21.4975  -23.5390 C   0  0  0  0  0  0
  -29.6152  -22.4561  -24.3731 C   0  0  0  0  0  0
  -30.2754  -23.3162  -23.7502 O   0  5  0  0  0  0
  -29.5672  -22.3497  -25.6140 O   0  0  0  0  0  0
  -28.1907  -22.0094  -22.3329 N   0  0  0  0  0  0
  -27.5038  -21.1754  -21.3610 C   0  0  2  0  0  0
  -26.6326  -20.3371  -22.1026 O   0  0  0  0  0  0
  -27.3813  -19.4609  -22.9426 C   0  0  0  0  0  0
  -26.9211  -22.4790  -20.7713 C   0  0  1  0  0  0
  -27.9058  -23.2069  -21.7233 C   0  0  0  0  0  0
  -28.1818  -24.3495  -22.0134 O   0  0  0  0  0  0
  -25.4816  -22.6908  -21.0252 N   0  0  0  0  0  0
  -24.8360  -23.2582  -22.0678 C   0  0  0  0  0  0
  -23.3185  -23.5054  -21.8742 C   0  0  2  0  0  0
  -22.8805  -24.8023  -22.5972 C   0  0  0  0  0  0
  -23.5688  -25.8482  -22.5054 O   0  5  0  0  0  0
  -21.7944  -24.7495  -23.2134 O   0  0  0  0  0  0
  -22.8940  -23.6021  -20.4039 C   0  0  0  0  0  0
  -22.0550  -22.6058  -19.8593 C   0  0  0  0  0  0
  -21.6411  -22.6782  -18.5157 C   0  0  0  0  0  0
  -22.0639  -23.7503  -17.7069 C   0  0  0  0  0  0
  -21.6487  -23.8389  -16.4133 O   0  0  0  0  0  0
  -22.9140  -24.7375  -18.2343 C   0  0  0  0  0  0
  -23.3263  -24.6654  -19.5757 C   0  0  0  0  0  0
  -25.3882  -23.5496  -23.1326 O   0  0  0  0  0  0
  -27.2877  -22.7423  -19.4201 O   0  0  0  0  0  0
  -26.6469  -21.9273  -18.4469 C   0  0  0  0  0  0
  -30.1647  -18.3489  -27.4752 N   0  0  0  0  0  0
  -30.9785  -17.8153  -28.4538 N   0  0  0  0  0  0
  -31.9671  -17.1487  -27.9349 N   0  0  0  0  0  0
  -32.3022  -16.3494  -24.7460 H   0  0  0  0  0  0
  -33.6202  -17.2333  -25.5413 H   0  0  0  0  0  0
  -33.1165  -15.6387  -26.1482 H   0  0  0  0  0  0
  -29.0445  -20.0908  -25.9083 H   0  0  0  0  0  0
  -27.9570  -18.8278  -25.4560 H   0  0  0  0  0  0
  -28.2014  -20.6459  -20.7057 H   0  0  0  0  0  0
  -26.6745  -18.8760  -23.5327 H   0  0  0  0  0  0
  -27.9702  -18.7727  -22.3338 H   0  0  0  0  0  0
  -24.8867  -22.4349  -20.2515 H   0  0  0  0  0  0
  -22.8006  -22.6677  -22.3435 H   0  0  0  0  0  0
  -21.7193  -21.7819  -20.4727 H   0  0  0  0  0  0
  -20.9935  -21.9112  -18.1168 H   0  0  0  0  0  0
  -21.2394  -23.0402  -16.1144 H   0  0  0  0  0  0
  -23.2529  -25.5501  -17.6137 H   0  0  0  0  0  0
  -23.9687  -25.4376  -19.9686 H   0  0  0  0  0  0
  -27.0367  -22.1720  -17.4587 H   0  0  0  0  0  0
  -26.8362  -20.8679  -18.6240 H   0  0  0  0  0  0
  -25.5691  -22.0917  -18.4254 H   0  0  0  0  0  0
  1  2  1  0  0  0
  1 37  1  0  0  0
  1 38  1  0  0  0
  1 39  1  0  0  0
  2 36  1  0  0  0
  2  3  1  0  0  0
  3  4  1  0  0  0
  3 34  2  0  0  0
  4  5  1  0  0  0
  5  6  1  0  0  0
  5 40  1  0  0  0
  5 41  1  0  0  0
  6 14  1  0  0  0
  6  7  2  0  0  0
  7  8  1  0  0  0
  7 11  1  0  0  0
  8  9  1  0  0  0
  8 10  2  0  0  0
 11 16  1  0  0  0
 11 12  1  0  0  0
 12 13  1  0  0  0
 12 15  1  0  0  0
 12 42  1  0  0  0
 13 14  1  0  0  0
 14 43  1  0  0  0
 14 44  1  0  0  0
 15 16  1  0  0  0
 15 18  1  0  0  0
 15 32  1  0  0  0
 16 17  2  0  0  0
 18 19  1  0  0  0
 18 45  1  0  0  0
 19 20  1  0  0  0
 19 31  2  0  0  0
 20 21  1  0  0  0
 20 24  1  0  0  0
 20 46  1  0  0  0
 21 22  1  0  0  0
 21 23  2  0  0  0
 24 30  1  0  0  0
 24 25  2  0  0  0
 25 26  1  0  0  0
 25 47  1  0  0  0
 26 27  2  0  0  0
 26 48  1  0  0  0
 27 28  1  0  0  0
 27 29  1  0  0  0
 28 49  1  0  0  0
 29 30  2  0  0  0
 29 50  1  0  0  0
 30 51  1  0  0  0
 32 33  1  0  0  0
 33 52  1  0  0  0
 33 53  1  0  0  0
 33 54  1  0  0  0
 34 35  1  0  0  0
 35 36  2  0  0  0
M  CHG  2   9  -1  22  -1
M  END
> <s_m_entry_id>
27583

> <s_m_entry_name>
data_maestro.20

> <s_m_Source_Path>
C:\Users\olshana1\Git\GramNeg-Accumulation\Gram Negative Permeation - OmpF

> <s_m_Source_File>
data_maestro.csv

> <i_m_Source_File_Index>
20

> <s_m_job_name>
glide-dock_Nicaido_neutral

> <s_i_glide_gridfile>
3POX-grid

> <i_i_glide_lignum>
25

> <i_i_glide_rotatable_bonds>
11

> <r_i_docking_score>
-4.55553154044321

> <r_i_glide_ligand_efficiency>
-0.126542542790089

> <r_i_glide_ligand_efficiency_sa>
-0.417834269683904

> <r_i_glide_ligand_efficiency_ln>
-0.993893905885698

> <r_i_glide_gscore>
-4.55553154044321

> <r_i_glide_lipo>
0

> <r_i_glide_hbond>
-0.657604356423786

> <r_i_glide_metal>
0

> <r_i_glide_rewards>
0.00624595758877774

> <r_i_glide_evdw>
-30.5742950439453

> <r_i_glide_ecoul>
-12.9767227172852

> <r_i_glide_erotb>
0.534860792752126

> <r_i_glide_esite>
-0.963810774570291

> <r_i_glide_emodel>
-67.0839335593931

> <r_i_glide_energy>
-43.5510177612305

> <r_i_glide_einternal>
16.8610553741455

> <i_i_glide_confnum>
32

> <i_i_glide_posenum>
264

> <r_i_glide_eff_state_penalty>
0

> <r_glide_res:A132_vdw>
-0.0791769104878716

> <r_glide_res:A132_coul>
-65.892024934858

> <r_glide_res:A132_hbond>
-0.0703971947851789

> <r_glide_res:A132_dist>
2.02916732261047

> <r_glide_res:A132_Eint>
-66.041599040131

> <r_glide_res:A117_vdw>
-1.94955555315836

> <r_glide_res:A117_coul>
38.2411175294673

> <r_glide_res:A117_hbond>
0

> <r_glide_res:A117_dist>
2.1542410467191

> <r_glide_res:A117_Eint>
36.2915619763089

> <r_glide_res:A113_vdw>
-1.44429688965946

> <r_glide_res:A113_coul>
38.3486417483475

> <r_glide_res:A113_hbond>
0

> <r_glide_res:A113_dist>
3.46389072649724

> <r_glide_res:A113_Eint>
36.904344858688

> <r_glide_res:A82_vdw>
-2.97156237723915

> <r_glide_res:A82_coul>
-77.999976222186

> <r_glide_res:A82_hbond>
-0.187207161638607

> <r_glide_res:A82_dist>
2.11636837383621

> <r_glide_res:A82_Eint>
-81.1587457610638

> <r_glide_res:A42_vdw>
-0.530332839224289

> <r_glide_res:A42_coul>
-73.3391319976911

> <r_glide_res:A42_hbond>
-0.2

> <r_glide_res:A42_dist>
1.76402919034457

> <r_glide_res:A42_Eint>
-74.0694648369154

> <r_glide_res:A16_vdw>
-1.35178514257878

> <r_glide_res:A16_coul>
-56.8368555176796

> <r_glide_res:A16_hbond>
0

> <r_glide_res:A16_dist>
2.50920198622744

> <r_glide_res:A16_Eint>
-58.1886406602583

> <s_m_source_file>
ligprep_Nicaido_neutral.maegz

> <i_m_source_file_index>
20

> <i_lp_mmshare_version>
58128

> <i_f3d_flags>
0

> <s_lp_Force_Field>
S-OPLS

> <r_lp_Energy>
52.146636

> <b_lp_Chiralities_Consistent>
1

> <s_lp_Variant>
Moxalactam-1

> <s_epik_input>
bjFubmMobjFbQ0gzXSlTW0NIMl1DKD1DMkMoPU8pW09IXSlbQ0gyXU9bQ0BASF0oTjIzKVtDQF0oQzM9TykoT1tDSDNdKVtOSF1DKD1PKVtDQEhdKEMoPU8pW09IXSljNFtjSF1bY0hdYyhbT0hdKVtjSF1bY0hdNA==

> <s_epik_cmdline>
J2VwaWtfcHl0aG9uJywgJy1waHQnLCAnMC4wJywgJy1waCcsICc3LjQnLCAnLW50JywgJy1tYScsICc1MDAnLCAnLWltYWUnLCAnPGluZmlsZS5tYWU+JywgJy1vbWFlJywgJzxvdXRmaWxlLm1hZT4n

> <r_lp_tautomer_probability>
1

> <r_epik_Ionization_Penalty>
  0.0029

> <r_epik_Ionization_Penalty_Charging>
  0.0001

> <r_epik_Ionization_Penalty_Neutral>
  0.0029

> <r_epik_State_Penalty>
  0.0000

> <r_epik_Charging_Adjusted_Penalty>
5.78268703870383e-05

> <i_epik_Tot_Q>
-2

> <i_epik_Tot_abs_Q>
2

> <s_epik_Chemistry_Notes>
This compound contains an acetal/aminal-like group ( X-CH(R)-Y where X, Y are N, S, or O) that may be acid/base labile, releasing an aldehyde.

> <s_m_subgroup_title>
glide-dock_Nicaido_neutral_pv1

> <s_m_subgroupid>
glide-dock_Nicaido_neutral_pv1

> <b_m_subgroup_collapsed>
0

$$$$
Carbenicillin
                    3D
 Schrodinger Suite 2022-2.
 42 44  0  0  1  0            999 V2000
  -28.5649  -19.7216  -24.3144 C   0  0  0  0  0  0
  -29.4652  -20.3071  -23.2043 C   0  0  0  0  0  0
  -29.4415  -21.8766  -23.0965 C   0  0  2  0  0  0
  -28.5000  -22.1422  -22.0194 N   0  0  0  0  0  0
  -28.2634  -21.2519  -20.8964 C   0  0  2  0  0  0
  -28.7974  -19.6710  -21.6149 S   0  0  0  0  0  0
  -26.8171  -21.7693  -20.8877 C   0  0  2  0  0  0
  -27.3642  -22.8800  -21.8050 C   0  0  0  0  0  0
  -26.9899  -23.9494  -22.2426 O   0  0  0  0  0  0
  -26.3484  -22.2454  -19.5858 N   0  0  0  0  0  0
  -25.1543  -22.8428  -19.4207 C   0  0  0  0  0  0
  -24.7494  -23.2493  -17.9846 C   0  0  2  0  0  0
  -23.5848  -22.4139  -17.4292 C   0  0  0  0  0  0
  -23.7122  -21.8148  -16.1556 C   0  0  0  0  0  0
  -22.6578  -21.0537  -15.6147 C   0  0  0  0  0  0
  -21.4645  -20.8801  -16.3398 C   0  0  0  0  0  0
  -21.3239  -21.4753  -17.6075 C   0  0  0  0  0  0
  -22.3749  -22.2411  -18.1458 C   0  0  0  0  0  0
  -24.3988  -24.7566  -18.0134 C   0  0  0  0  0  0
  -25.2849  -25.5476  -18.4134 O   0  5  0  0  0  0
  -23.2763  -25.1496  -17.6131 O   0  0  0  0  0  0
  -24.4058  -23.0654  -20.3778 O   0  0  0  0  0  0
  -29.1505  -22.6371  -24.4133 C   0  0  0  0  0  0
  -27.9688  -22.7173  -24.8133 O   0  5  0  0  0  0
  -30.1052  -23.1491  -25.0399 O   0  0  0  0  0  0
  -30.9028  -19.7992  -23.4002 C   0  0  0  0  0  0
  -28.9147  -19.9890  -25.3117 H   0  0  0  0  0  0
  -28.5448  -18.6317  -24.2669 H   0  0  0  0  0  0
  -27.5356  -20.0660  -24.2119 H   0  0  0  0  0  0
  -30.4052  -22.2283  -22.7270 H   0  0  0  0  0  0
  -28.8503  -21.5110  -20.0106 H   0  0  0  0  0  0
  -26.1300  -21.0776  -21.3772 H   0  0  0  0  0  0
  -26.9276  -22.0652  -18.7788 H   0  0  0  0  0  0
  -25.6142  -23.1368  -17.3276 H   0  0  0  0  0  0
  -24.6231  -21.9357  -15.5850 H   0  0  0  0  0  0
  -22.7689  -20.5968  -14.6422 H   0  0  0  0  0  0
  -20.6605  -20.2918  -15.9229 H   0  0  0  0  0  0
  -20.4092  -21.3485  -18.1685 H   0  0  0  0  0  0
  -22.2384  -22.7074  -19.1095 H   0  0  0  0  0  0
  -31.3340  -20.1814  -24.3248 H   0  0  0  0  0  0
  -31.5478  -20.1162  -22.5793 H   0  0  0  0  0  0
  -30.9416  -18.7102  -23.4402 H   0  0  0  0  0  0
  1  2  1  0  0  0
  1 27  1  0  0  0
  1 28  1  0  0  0
  1 29  1  0  0  0
  2  6  1  0  0  0
  2  3  1  0  0  0
  2 26  1  0  0  0
  3  4  1  0  0  0
  3 23  1  0  0  0
  3 30  1  0  0  0
  4  8  1  0  0  0
  4  5  1  0  0  0
  5  6  1  0  0  0
  5  7  1  0  0  0
  5 31  1  0  0  0
  7  8  1  0  0  0
  7 10  1  0  0  0
  7 32  1  0  0  0
  8  9  2  0  0  0
 10 11  1  0  0  0
 10 33  1  0  0  0
 11 12  1  0  0  0
 11 22  2  0  0  0
 12 13  1  0  0  0
 12 19  1  0  0  0
 12 34  1  0  0  0
 13 18  1  0  0  0
 13 14  2  0  0  0
 14 15  1  0  0  0
 14 35  1  0  0  0
 15 16  2  0  0  0
 15 36  1  0  0  0
 16 17  1  0  0  0
 16 37  1  0  0  0
 17 18  2  0  0  0
 17 38  1  0  0  0
 18 39  1  0  0  0
 19 20  1  0  0  0
 19 21  2  0  0  0
 23 24  1  0  0  0
 23 25  2  0  0  0
 26 40  1  0  0  0
 26 41  1  0  0  0
 26 42  1  0  0  0
M  CHG  2  20  -1  24  -1
M  END
> <s_m_entry_id>
27584

> <s_m_entry_name>
data_maestro.24

> <s_m_Source_Path>
C:\Users\olshana1\Git\GramNeg-Accumulation\Gram Negative Permeation - OmpF

> <s_m_Source_File>
data_maestro.csv

> <i_m_Source_File_Index>
24

> <s_m_job_name>
glide-dock_Nicaido_neutral

> <s_i_glide_gridfile>
3POX-grid

> <i_i_glide_lignum>
31

> <i_i_glide_rotatable_bonds>
6

> <r_i_docking_score>
-4.55165867732894

> <r_i_glide_ligand_efficiency>
-0.175063795281882

> <r_i_glide_ligand_efficiency_sa>
-0.518625804679805

> <r_i_glide_ligand_efficiency_ln>
-1.06894210516041

> <r_i_glide_gscore>
-4.55165867732894

> <r_i_glide_lipo>
0

> <r_i_glide_hbond>
-0.937551060807699

> <r_i_glide_metal>
0

> <r_i_glide_rewards>
-0.84280795616374

> <r_i_glide_evdw>
-21.1521110534668

> <r_i_glide_ecoul>
-11.1186609268188

> <r_i_glide_erotb>
0.409918473255716

> <r_i_glide_esite>
-0.455813441917054

> <r_i_glide_emodel>
-57.4809414507941

> <r_i_glide_energy>
-32.2707719802856

> <r_i_glide_einternal>
1.56389796733856

> <i_i_glide_confnum>
5

> <i_i_glide_posenum>
73

> <r_i_glide_eff_state_penalty>
0

> <r_glide_res:A132_vdw>
-2.49546017847936

> <r_glide_res:A132_coul>
-64.6300705003226

> <r_glide_res:A132_hbond>
-0.0105358019012716

> <r_glide_res:A132_dist>
2.44872751723967

> <r_glide_res:A132_Eint>
-67.1360664807032

> <r_glide_res:A117_vdw>
-2.25859449644754

> <r_glide_res:A117_coul>
38.9625374028632

> <r_glide_res:A117_hbond>
0

> <r_glide_res:A117_dist>
2.78943235487842

> <r_glide_res:A117_Eint>
36.7039429064156

> <r_glide_res:A113_vdw>
-2.30627203531749

> <r_glide_res:A113_coul>
38.1065649735575

> <r_glide_res:A113_hbond>
0

> <r_glide_res:A113_dist>
2.94027854095558

> <r_glide_res:A113_Eint>
35.80029293824

> <r_glide_res:A82_vdw>
-1.89208973632714

> <r_glide_res:A82_coul>
-65.4445684974235

> <r_glide_res:A82_hbond>
-0.16

> <r_glide_res:A82_dist>
1.93141723278256

> <r_glide_res:A82_Eint>
-67.4966582337507

> <r_glide_res:A42_vdw>
2.02950059785548

> <r_glide_res:A42_coul>
-73.7457032292263

> <r_glide_res:A42_hbond>
-0.462708308693662

> <r_glide_res:A42_dist>
1.77086198037205

> <r_glide_res:A42_Eint>
-72.1789109400645

> <r_glide_res:A16_vdw>
-0.513145419284485

> <r_glide_res:A16_coul>
-44.6264143316655

> <r_glide_res:A16_hbond>
0

> <r_glide_res:A16_dist>
3.34005797274429

> <r_glide_res:A16_Eint>
-45.13955975095

> <s_m_source_file>
ligprep_Nicaido_neutral.maegz

> <i_m_source_file_index>
24

> <i_lp_mmshare_version>
58128

> <i_f3d_flags>
0

> <s_lp_Force_Field>
S-OPLS

> <r_lp_Energy>
37.112724

> <b_lp_Chiralities_Consistent>
1

> <s_lp_Variant>
Carbenicillin-1

> <s_epik_input>
W09IXUMoPU8pW0NAQEhdMUMoW0NIM10pKFtDSDNdKVNbQ0BASF0oTjEyKVtDQEhdKEMyPU8pW05IXUMoPU8pW0NAQEhdKEMoPU8pW09IXSljM1tjSF1bY0hdW2NIXVtjSF1bY0hdMw==

> <s_epik_cmdline>
J2VwaWtfcHl0aG9uJywgJy1waHQnLCAnMC4wJywgJy1waCcsICc3LjQnLCAnLW50JywgJy1tYScsICc1MDAnLCAnLWltYWUnLCAnPGluZmlsZS5tYWU+JywgJy1vbWFlJywgJzxvdXRmaWxlLm1hZT4n

> <r_lp_tautomer_probability>
1

> <r_epik_Ionization_Penalty>
  0.0000

> <r_epik_Ionization_Penalty_Charging>
  0.0000

> <r_epik_Ionization_Penalty_Neutral>
  0.0000

> <r_epik_State_Penalty>
  0.0000

> <r_epik_Charging_Adjusted_Penalty>
4.98035685666923e-05

> <i_epik_Tot_Q>
-2

> <i_epik_Tot_abs_Q>
2

> <s_epik_Chemistry_Notes>
This compound contains an acetal/aminal-like group ( X-CH(R)-Y where X, Y are N, S, or O) that may be acid/base labile, releasing an aldehyde.

> <s_m_subgroup_title>
glide-dock_Nicaido_neutral_pv1

> <s_m_subgroupid>
glide-dock_Nicaido_neutral_pv1

> <b_m_subgroup_collapsed>
0

$$$$
Cephaloridine
                    3D
 Schrodinger Suite 2022-2.
 45 48  0  0  1  0            999 V2000
  -27.9689  -21.5410  -26.0132 O   0  0  0  0  0  0
  -28.1404  -20.7183  -25.1402 C   0  0  0  0  0  0
  -27.6512  -19.2937  -24.7573 C   0  0  2  0  0  0
  -26.1998  -19.1497  -24.5299 N   0  0  0  0  0  0
  -25.3369  -20.0356  -23.9900 C   0  0  0  0  0  0
  -23.9097  -19.5503  -23.7437 C   0  0  0  0  0  0
  -23.7436  -19.1078  -22.3231 C   0  0  0  0  0  0
  -24.3656  -18.0642  -21.6832 C   0  0  0  0  0  0
  -24.0000  -17.9498  -20.3098 C   0  0  0  0  0  0
  -23.0890  -18.8951  -19.9226 C   0  0  0  0  0  0
  -22.6696  -19.9554  -21.2391 S   0  0  0  0  0  0
  -25.6341  -21.1885  -23.6724 O   0  0  0  0  0  0
  -28.4560  -19.4958  -23.4522 C   0  0  2  0  0  0
  -28.9073  -20.7590  -23.9998 N   0  0  0  0  0  0
  -29.6731  -21.6584  -23.2522 C   0  0  0  0  0  0
  -29.5462  -23.1534  -23.6738 C   0  0  0  0  0  0
  -29.0577  -23.9492  -22.8356 O   0  5  0  0  0  0
  -29.9557  -23.4463  -24.8177 O   0  0  0  0  0  0
  -30.5095  -21.2361  -22.2722 C   0  0  0  0  0  0
  -31.3585  -22.1931  -21.4455 C   0  0  0  0  0  0
  -32.7847  -22.0998  -21.8006 N   0  3  0  0  0  0
  -33.2047  -22.5998  -22.9909 C   0  0  0  0  0  0
  -34.5687  -22.5524  -23.3477 C   0  0  0  0  0  0
  -35.4940  -21.9813  -22.4509 C   0  0  0  0  0  0
  -35.0315  -21.4729  -21.2216 C   0  0  0  0  0  0
  -33.6567  -21.5497  -20.9217 C   0  0  0  0  0  0
  -30.6333  -19.7677  -21.8443 C   0  0  0  0  0  0
  -29.9691  -18.5763  -23.0454 S   0  0  0  0  0  0
  -28.0658  -18.4930  -25.3705 H   0  0  0  0  0  0
  -25.8024  -18.2453  -24.7832 H   0  0  0  0  0  0
  -23.6526  -18.7494  -24.4325 H   0  0  0  0  0  0
  -23.2223  -20.3669  -23.9656 H   0  0  0  0  0  0
  -25.0754  -17.3946  -22.1466 H   0  0  0  0  0  0
  -24.4110  -17.1883  -19.6628 H   0  0  0  0  0  0
  -22.6446  -19.0319  -18.9479 H   0  0  0  0  0  0
  -27.8359  -19.6445  -22.5654 H   0  0  0  0  0  0
  -31.0843  -23.2434  -21.5177 H   0  0  0  0  0  0
  -31.2330  -21.9192  -20.4133 H   0  0  0  0  0  0
  -32.4457  -23.0282  -23.6286 H   0  0  0  0  0  0
  -34.9014  -22.9500  -24.2955 H   0  0  0  0  0  0
  -36.5442  -21.9308  -22.7013 H   0  0  0  0  0  0
  -35.7133  -21.0194  -20.5136 H   0  0  0  0  0  0
  -33.2378  -21.1624  -20.0061 H   0  0  0  0  0  0
  -31.6738  -19.5067  -21.6550 H   0  0  0  0  0  0
  -30.0987  -19.6394  -20.9020 H   0  0  0  0  0  0
  1  2  2  0  0  0
  2 14  1  0  0  0
  2  3  1  0  0  0
  3  4  1  0  0  0
  3 13  1  0  0  0
  3 29  1  0  0  0
  4  5  1  0  0  0
  4 30  1  0  0  0
  5  6  1  0  0  0
  5 12  2  0  0  0
  6  7  1  0  0  0
  6 31  1  0  0  0
  6 32  1  0  0  0
  7 11  1  0  0  0
  7  8  2  0  0  0
  8  9  1  0  0  0
  8 33  1  0  0  0
  9 10  2  0  0  0
  9 34  1  0  0  0
 10 11  1  0  0  0
 10 35  1  0  0  0
 13 28  1  0  0  0
 13 14  1  0  0  0
 13 36  1  0  0  0
 14 15  1  0  0  0
 15 16  1  0  0  0
 15 19  2  0  0  0
 16 17  1  0  0  0
 16 18  2  0  0  0
 19 20  1  0  0  0
 19 27  1  0  0  0
 20 21  1  0  0  0
 20 37  1  0  0  0
 20 38  1  0  0  0
 21 26  1  0  0  0
 21 22  2  0  0  0
 22 23  1  0  0  0
 22 39  1  0  0  0
 23 24  2  0  0  0
 23 40  1  0  0  0
 24 25  1  0  0  0
 24 41  1  0  0  0
 25 26  2  0  0  0
 25 42  1  0  0  0
 26 43  1  0  0  0
 27 28  1  0  0  0
 27 44  1  0  0  0
 27 45  1  0  0  0
M  CHG  2  17  -1  21   1
M  END
> <s_m_entry_id>
27585

> <s_m_entry_name>
data_maestro.13

> <s_m_Source_Path>
C:\Users\olshana1\Git\GramNeg-Accumulation\Gram Negative Permeation - OmpF

> <s_m_Source_File>
data_maestro.csv

> <i_m_Source_File_Index>
13

> <s_m_job_name>
glide-dock_Nicaido_neutral

> <s_i_glide_gridfile>
3POX-grid

> <i_i_glide_lignum>
18

> <i_i_glide_rotatable_bonds>
7

> <r_i_docking_score>
-4.54858182476257

> <r_i_glide_ligand_efficiency>
-0.162449350884377

> <r_i_glide_ligand_efficiency_sa>
-0.493291906835944

> <r_i_glide_ligand_efficiency_ln>
-1.04994623732078

> <r_i_glide_gscore>
-4.54858182476257

> <r_i_glide_lipo>
-0.0738141825139779

> <r_i_glide_hbond>
-0.715198173185604

> <r_i_glide_metal>
0

> <r_i_glide_rewards>
-0.575857362726375

> <r_i_glide_evdw>
-23.5147914886475

> <r_i_glide_ecoul>
-14.0778102874756

> <r_i_glide_erotb>
0.571951339556603

> <r_i_glide_esite>
-0.468252328339502

> <r_i_glide_emodel>
-58.1052824111782

> <r_i_glide_energy>
-37.592601776123

> <r_i_glide_einternal>
6.65484523773193

> <i_i_glide_confnum>
4

> <i_i_glide_posenum>
43

> <r_i_glide_eff_state_penalty>
0

> <r_glide_res:A132_vdw>
-0.872953928142992

> <r_glide_res:A132_coul>
-11.901253585398

> <r_glide_res:A132_hbond>
0

> <r_glide_res:A132_dist>
3.03424352867609

> <r_glide_res:A132_Eint>
-12.774207513541

> <r_glide_res:A117_vdw>
-5.4867439839153

> <r_glide_res:A117_coul>
-9.9281789621281

> <r_glide_res:A117_hbond>
-0.16

> <r_glide_res:A117_dist>
1.92961071997888

> <r_glide_res:A117_Eint>
-15.5749229460434

> <r_glide_res:A113_vdw>
-3.40288295640951

> <r_glide_res:A113_coul>
-19.5050686754744

> <r_glide_res:A113_hbond>
0

> <r_glide_res:A113_dist>
2.26798768357768

> <r_glide_res:A113_Eint>
-22.9079516318839

> <r_glide_res:A82_vdw>
-0.336535320347614

> <r_glide_res:A82_coul>
-27.1077309803377

> <r_glide_res:A82_hbond>
-0.226654330474365

> <r_glide_res:A82_dist>
1.90803348553438

> <r_glide_res:A82_Eint>
-27.6709206311597

> <r_glide_res:A42_vdw>
0.514427481428803

> <r_glide_res:A42_coul>
-30.3829970734251

> <r_glide_res:A42_hbond>
-0.328543842711238

> <r_glide_res:A42_dist>
1.85246455160168

> <r_glide_res:A42_Eint>
-30.1971134347075

> <r_glide_res:A16_vdw>
-0.841989026372652

> <r_glide_res:A16_coul>
-10.3309262417727

> <r_glide_res:A16_hbond>
0

> <r_glide_res:A16_dist>
3.15928192357147

> <r_glide_res:A16_Eint>
-11.1729152681453

> <s_m_source_file>
ligprep_Nicaido_neutral.maegz

> <i_m_source_file_index>
13

> <i_lp_mmshare_version>
58128

> <i_f3d_flags>
0

> <s_lp_Force_Field>
S-OPLS

> <r_lp_Energy>
50.740529

> <b_lp_Chiralities_Consistent>
1

> <s_lp_Variant>
Cephaloridine-1

> <s_epik_input>
czFbY0hdW2NIXVtjSF1jMVtDSDJdQyg9TylbTkhdW0NASF0yQyg9TylOKFtDQEBIXTIzKUMoQyg9TylbT0hdKT1DKFtDSDJdUzMpW0NIMl1bbitdNFtjSF1bY0hdW2NIXVtjSF1bY0hdNA==

> <s_epik_cmdline>
J2VwaWtfcHl0aG9uJywgJy1waHQnLCAnMC4wJywgJy1waCcsICc3LjQnLCAnLW50JywgJy1tYScsICc1MDAnLCAnLWltYWUnLCAnPGluZmlsZS5tYWU+JywgJy1vbWFlJywgJzxvdXRmaWxlLm1hZT4n

> <r_lp_tautomer_probability>
1

> <r_epik_Ionization_Penalty>
  0.0000

> <r_epik_Ionization_Penalty_Charging>
  0.0000

> <r_epik_Ionization_Penalty_Neutral>
  0.0000

> <r_epik_State_Penalty>
  0.0000

> <r_epik_Charging_Adjusted_Penalty>
1.62498989321064e-05

> <i_epik_Tot_Q>
0

> <i_epik_Tot_abs_Q>
2

> <s_epik_Chemistry_Notes>
This compound contains an acetal/aminal-like group ( X-CH(R)-Y where X, Y are N, S, or O) that may be acid/base labile, releasing an aldehyde.

> <s_m_subgroup_title>
glide-dock_Nicaido_neutral_pv1

> <s_m_subgroupid>
glide-dock_Nicaido_neutral_pv1

> <b_m_subgroup_collapsed>
0

$$$$
Aztreonam
                    3D
 Schrodinger Suite 2022-2.
 43 44  0  0  1  0            999 V2000
  -31.0690  -23.4248  -23.2240 C   0  0  0  0  0  0
  -31.2128  -21.9754  -23.7139 C   0  0  1  0  0  0
  -29.9605  -21.0809  -23.9132 C   0  0  2  0  0  0
  -30.1030  -21.4844  -25.4054 C   0  0  0  0  0  0
  -31.3915  -21.8768  -25.1606 N   0  0  0  0  0  0
  -32.4881  -22.7801  -26.0292 S   0  0  0  0  0  0
  -31.7421  -24.0120  -26.3383 O   0  0  0  0  0  0
  -32.7691  -21.9496  -27.2134 O   0  5  0  0  0  0
  -33.6343  -22.9626  -25.1281 O   0  0  0  0  0  0
  -29.4328  -21.5392  -26.4134 O   0  0  0  0  0  0
  -28.8100  -21.6107  -23.1589 N   0  0  0  0  0  0
  -27.6064  -22.0287  -23.6074 C   0  0  0  0  0  0
  -26.7346  -22.7018  -22.5653 C   0  0  0  0  0  0
  -27.1627  -22.5629  -21.1493 C   0  0  0  0  0  0
  -26.9497  -21.4044  -20.4382 C   0  0  0  0  0  0
  -27.5689  -21.5158  -18.8128 S   0  0  0  0  0  0
  -28.1067  -23.1480  -19.1744 C   0  0  0  0  0  0
  -28.7691  -23.9183  -18.2408 N   0  0  0  0  0  0
  -27.8290  -23.5514  -20.4146 N   0  0  0  0  0  0
  -25.7227  -23.3728  -22.9466 N   0  0  0  0  0  0
  -24.9959  -23.9488  -21.8884 O   0  0  0  0  0  0
  -23.6881  -24.3559  -22.3291 C   0  0  0  0  0  0
  -23.7561  -25.6474  -23.1940 C   0  0  0  0  0  0
  -23.9846  -25.5500  -24.4215 O   0  5  0  0  0  0
  -23.5690  -26.7461  -22.6195 O   0  0  0  0  0  0
  -22.9396  -23.2310  -23.0910 C   0  0  0  0  0  0
  -22.9426  -24.6413  -21.0074 C   0  0  0  0  0  0
  -27.2231  -21.9493  -24.7755 O   0  0  0  0  0  0
  -30.8214  -23.4547  -22.1625 H   0  0  0  0  0  0
  -31.9935  -23.9893  -23.3497 H   0  0  0  0  0  0
  -30.2826  -23.9504  -23.7636 H   0  0  0  0  0  0
  -32.0168  -21.4413  -23.2040 H   0  0  0  0  0  0
  -30.1634  -20.0280  -23.7088 H   0  0  0  0  0  0
  -28.9770  -21.7056  -22.1664 H   0  0  0  0  0  0
  -26.4721  -20.4910  -20.7638 H   0  0  0  0  0  0
  -29.3801  -24.6298  -18.6077 H   0  0  0  0  0  0
  -29.2372  -23.3612  -17.5357 H   0  0  0  0  0  0
  -21.9006  -23.5050  -23.2747 H   0  0  0  0  0  0
  -23.3855  -23.0056  -24.0610 H   0  0  0  0  0  0
  -22.9362  -22.3058  -22.5139 H   0  0  0  0  0  0
  -21.9312  -25.0080  -21.1860 H   0  0  0  0  0  0
  -22.8616  -23.7369  -20.4041 H   0  0  0  0  0  0
  -23.4639  -25.3834  -20.4017 H   0  0  0  0  0  0
  1  2  1  0  0  0
  1 29  1  0  0  0
  1 30  1  0  0  0
  1 31  1  0  0  0
  2  5  1  0  0  0
  2  3  1  0  0  0
  2 32  1  0  0  0
  3  4  1  0  0  0
  3 11  1  0  0  0
  3 33  1  0  0  0
  4  5  1  0  0  0
  4 10  2  0  0  0
  5  6  1  0  0  0
  6  7  2  0  0  0
  6  8  1  0  0  0
  6  9  2  0  0  0
 11 12  1  0  0  0
 11 34  1  0  0  0
 12 13  1  0  0  0
 12 28  2  0  0  0
 13 14  1  0  0  0
 13 20  2  3  0  0
 14 19  1  0  0  0
 14 15  2  0  0  0
 15 16  1  0  0  0
 15 35  1  0  0  0
 16 17  1  0  0  0
 17 18  1  0  0  0
 17 19  2  0  0  0
 18 36  1  0  0  0
 18 37  1  0  0  0
 20 21  1  0  0  0
 21 22  1  0  0  0
 22 23  1  0  0  0
 22 26  1  0  0  0
 22 27  1  0  0  0
 23 24  1  0  0  0
 23 25  2  0  0  0
 26 38  1  0  0  0
 26 39  1  0  0  0
 26 40  1  0  0  0
 27 41  1  0  0  0
 27 42  1  0  0  0
 27 43  1  0  0  0
M  CHG  2   8  -1  24  -1
M  END
> <s_m_entry_id>
27586

> <s_m_entry_name>
data_maestro.21

> <s_m_Source_Path>
C:\Users\olshana1\Git\GramNeg-Accumulation\Gram Negative Permeation - OmpF

> <s_m_Source_File>
data_maestro.csv

> <i_m_Source_File_Index>
21

> <s_m_job_name>
glide-dock_Nicaido_neutral

> <s_i_glide_gridfile>
3POX-grid

> <i_i_glide_lignum>
26

> <i_i_glide_rotatable_bonds>
8

> <r_i_docking_score>
-4.54526436018812

> <r_i_glide_ligand_efficiency>
-0.162330870006719

> <r_i_glide_ligand_efficiency_sa>
-0.492932129109867

> <r_i_glide_ligand_efficiency_ln>
-1.04918046909201

> <r_i_glide_gscore>
-4.54526436018812

> <r_i_glide_lipo>
0

> <r_i_glide_hbond>
-0.814668466853808

> <r_i_glide_metal>
0

> <r_i_glide_rewards>
-0.435087843242876

> <r_i_glide_evdw>
-21.2506294250488

> <r_i_glide_ecoul>
-13.4649105072021

> <r_i_glide_erotb>
0.635830109179744

> <r_i_glide_esite>
-0.849070111938419

> <r_i_glide_emodel>
-58.8829884269704

> <r_i_glide_energy>
-34.715539932251

> <r_i_glide_einternal>
7.32751512527466

> <i_i_glide_confnum>
76

> <i_i_glide_posenum>
91

> <r_i_glide_eff_state_penalty>
0

> <r_glide_res:A132_vdw>
-1.83394909314284

> <r_glide_res:A132_coul>
-63.6745973695595

> <r_glide_res:A132_hbond>
-0.240316659835062

> <r_glide_res:A132_dist>
2.10948898513796

> <r_glide_res:A132_Eint>
-65.7488631225374

> <r_glide_res:A117_vdw>
-0.990694171563383

> <r_glide_res:A117_coul>
35.556561791732

> <r_glide_res:A117_hbond>
0

> <r_glide_res:A117_dist>
4.22540103608978

> <r_glide_res:A117_Eint>
34.5658676201686

> <r_glide_res:A113_vdw>
-2.51821455375596

> <r_glide_res:A113_coul>
26.0311229555985

> <r_glide_res:A113_hbond>
0

> <r_glide_res:A113_dist>
2.50324363860014

> <r_glide_res:A113_Eint>
23.5129084018426

> <r_glide_res:A82_vdw>
-3.87052980201764

> <r_glide_res:A82_coul>
-68.3773983073667

> <r_glide_res:A82_hbond>
-0.0701271088701632

> <r_glide_res:A82_dist>
1.91080147263806

> <r_glide_res:A82_Eint>
-72.3180552182545

> <r_glide_res:A42_vdw>
-1.89859718455638

> <r_glide_res:A42_coul>
-73.2947661977332

> <r_glide_res:A42_hbond>
-0.230076629919669

> <r_glide_res:A42_dist>
1.77697094348925

> <r_glide_res:A42_Eint>
-75.4234400122092

> <r_glide_res:A16_vdw>
-0.854062413502169

> <r_glide_res:A16_coul>
-68.5421950415953

> <r_glide_res:A16_hbond>
-0.271607478225638

> <r_glide_res:A16_dist>
1.94770454098207

> <r_glide_res:A16_Eint>
-69.6678649333231

> <s_m_source_file>
ligprep_Nicaido_neutral.maegz

> <i_m_source_file_index>
21

> <i_lp_mmshare_version>
58128

> <i_f3d_flags>
0

> <s_lp_Force_Field>
S-OPLS

> <r_lp_Energy>
55.612973

> <b_lp_Chiralities_Consistent>
1

> <s_lp_Variant>
Aztreonam-1

> <s_epik_input>
Tz1TKD1PKShbT0hdKU4xQyg9TylbQ0BASF0oW0NAQEhdMVtDSDNdKVtOSF1DKD1PKS9DKGMyW2NIXXNjKG4yKVtOSDJdKT1OL09DKFtDSDNdKShbQ0gzXSlDKD1PKVtPSF0=

> <s_epik_cmdline>
J2VwaWtfcHl0aG9uJywgJy1waHQnLCAnMC4wJywgJy1waCcsICc3LjQnLCAnLW50JywgJy1tYScsICc1MDAnLCAnLWltYWUnLCAnPGluZmlsZS5tYWU+JywgJy1vbWFlJywgJzxvdXRmaWxlLm1hZT4n

> <r_lp_tautomer_probability>
1

> <r_epik_Ionization_Penalty>
  0.0004

> <r_epik_Ionization_Penalty_Charging>
  0.0000

> <r_epik_Ionization_Penalty_Neutral>
  0.0004

> <r_epik_State_Penalty>
  0.0000

> <r_epik_Charging_Adjusted_Penalty>
4.45674509427693e-05

> <i_epik_Tot_Q>
-2

> <i_epik_Tot_abs_Q>
2

> <s_epik_Chemistry_Notes>
This compound has an imine and may undergo hydrolysis.

> <s_m_subgroup_title>
glide-dock_Nicaido_neutral_pv1

> <s_m_subgroupid>
glide-dock_Nicaido_neutral_pv1

> <b_m_subgroup_collapsed>
0

$$$$
Ampicillin
                    3D
 Schrodinger Suite 2022-2.
 42 44  0  0  1  0            999 V2000
  -30.9792  -20.7323  -24.2848 C   0  0  0  0  0  0
  -30.3082  -20.7785  -22.8960 C   0  0  0  0  0  0
  -29.1441  -21.8140  -22.7589 C   0  0  2  0  0  0
  -27.9602  -21.0648  -23.1056 N   0  0  0  0  0  0
  -27.7569  -19.6802  -22.7375 C   0  0  2  0  0  0
  -29.5060  -19.1472  -22.6460 S   0  0  0  0  0  0
  -26.8500  -19.5539  -23.9777 C   0  0  2  0  0  0
  -27.0199  -21.0692  -24.1029 C   0  0  0  0  0  0
  -26.5880  -21.9496  -24.8134 O   0  0  0  0  0  0
  -25.4666  -19.1268  -23.7379 N   0  0  0  0  0  0
  -24.5184  -19.6565  -22.9457 C   0  0  0  0  0  0
  -23.1272  -19.0099  -23.0419 C   0  0  2  0  0  0
  -22.4637  -19.7286  -24.1809 C   0  0  0  0  0  0
  -21.7121  -20.9170  -23.9988 C   0  0  0  0  0  0
  -21.0911  -21.5700  -25.0817 C   0  0  0  0  0  0
  -21.2164  -21.0525  -26.3822 C   0  0  0  0  0  0
  -21.9691  -19.8864  -26.5955 C   0  0  0  0  0  0
  -22.5787  -19.2395  -25.5053 C   0  0  0  0  0  0
  -22.3960  -19.1086  -21.7782 N   0  0  0  0  0  0
  -24.7083  -20.6061  -22.1822 O   0  0  0  0  0  0
  -29.2625  -23.1497  -23.5134 C   0  0  0  0  0  0
  -29.1857  -24.1878  -22.8133 O   0  5  0  0  0  0
  -29.3427  -23.1501  -24.7682 O   0  0  0  0  0  0
  -31.3783  -21.0120  -21.8168 C   0  0  0  0  0  0
  -31.5307  -21.6482  -24.4980 H   0  0  0  0  0  0
  -31.6904  -19.9080  -24.3467 H   0  0  0  0  0  0
  -30.2427  -20.5882  -25.0758 H   0  0  0  0  0  0
  -29.0192  -22.0523  -21.7012 H   0  0  0  0  0  0
  -27.2501  -19.5590  -21.7781 H   0  0  0  0  0  0
  -27.3337  -18.9863  -24.7736 H   0  0  0  0  0  0
  -25.1772  -18.3134  -24.2818 H   0  0  0  0  0  0
  -23.2518  -17.9504  -23.2697 H   0  0  0  0  0  0
  -21.6093  -21.3430  -23.0123 H   0  0  0  0  0  0
  -20.5166  -22.4683  -24.9144 H   0  0  0  0  0  0
  -20.7388  -21.5476  -27.2132 H   0  0  0  0  0  0
  -22.0756  -19.4821  -27.5920 H   0  0  0  0  0  0
  -23.1561  -18.3496  -25.6982 H   0  0  0  0  0  0
  -22.9885  -19.5188  -21.0687 H   0  0  0  0  0  0
  -21.5903  -19.7072  -21.8659 H   0  0  0  0  0  0
  -31.8542  -21.9857  -21.9328 H   0  0  0  0  0  0
  -30.9463  -20.9754  -20.8160 H   0  0  0  0  0  0
  -32.1577  -20.2505  -21.8565 H   0  0  0  0  0  0
  1  2  1  0  0  0
  1 25  1  0  0  0
  1 26  1  0  0  0
  1 27  1  0  0  0
  2  6  1  0  0  0
  2  3  1  0  0  0
  2 24  1  0  0  0
  3  4  1  0  0  0
  3 21  1  0  0  0
  3 28  1  0  0  0
  4  8  1  0  0  0
  4  5  1  0  0  0
  5  6  1  0  0  0
  5  7  1  0  0  0
  5 29  1  0  0  0
  7  8  1  0  0  0
  7 10  1  0  0  0
  7 30  1  0  0  0
  8  9  2  0  0  0
 10 11  1  0  0  0
 10 31  1  0  0  0
 11 12  1  0  0  0
 11 20  2  0  0  0
 12 13  1  0  0  0
 12 19  1  0  0  0
 12 32  1  0  0  0
 13 18  1  0  0  0
 13 14  2  0  0  0
 14 15  1  0  0  0
 14 33  1  0  0  0
 15 16  2  0  0  0
 15 34  1  0  0  0
 16 17  1  0  0  0
 16 35  1  0  0  0
 17 18  2  0  0  0
 17 36  1  0  0  0
 18 37  1  0  0  0
 19 38  1  0  0  0
 19 39  1  0  0  0
 21 22  1  0  0  0
 21 23  2  0  0  0
 24 40  1  0  0  0
 24 41  1  0  0  0
 24 42  1  0  0  0
M  CHG  1  22  -1
M  END
> <s_m_entry_id>
27587

> <s_m_entry_name>
data_maestro.18

> <s_m_Source_Path>
C:\Users\olshana1\Git\GramNeg-Accumulation\Gram Negative Permeation - OmpF

> <s_m_Source_File>
data_maestro.csv

> <i_m_Source_File_Index>
18

> <s_m_job_name>
glide-dock_Nicaido_neutral

> <s_i_glide_gridfile>
3POX-grid

> <i_i_glide_lignum>
23

> <i_i_glide_rotatable_bonds>
5

> <r_i_docking_score>
-4.54432115867074

> <r_i_glide_ligand_efficiency>
-0.189346714944614

> <r_i_glide_ligand_efficiency_sa>
-0.546170435957391

> <r_i_glide_ligand_efficiency_ln>
-1.08766457858019

> <r_i_glide_gscore>
-4.65022115867074

> <r_i_glide_lipo>
-0.250399364593311

> <r_i_glide_hbond>
-0.745443085380136

> <r_i_glide_metal>
0

> <r_i_glide_rewards>
-1.03338320445835

> <r_i_glide_evdw>
-20.4548931121826

> <r_i_glide_ecoul>
-11.2113075256348

> <r_i_glide_erotb>
0.470487855572594

> <r_i_glide_esite>
-0.387042575357184

> <r_i_glide_emodel>
-50.9853270623548

> <r_i_glide_energy>
-31.6662006378174

> <r_i_glide_einternal>
4.65583658218384

> <i_i_glide_confnum>
4

> <i_i_glide_posenum>
126

> <r_i_glide_eff_state_penalty>
0.1059

> <r_glide_res:A132_vdw>
-0.900328101933584

> <r_glide_res:A132_coul>
-33.9990506897209

> <r_glide_res:A132_hbond>
0

> <r_glide_res:A132_dist>
2.92455608284663

> <r_glide_res:A132_Eint>
-34.8993787916545

> <r_glide_res:A117_vdw>
-3.89912096712467

> <r_glide_res:A117_coul>
7.62935623372232

> <r_glide_res:A117_hbond>
-0.16

> <r_glide_res:A117_dist>
1.9213971615897

> <r_glide_res:A117_Eint>
3.57023526659765

> <r_glide_res:A113_vdw>
-1.90370928989878

> <r_glide_res:A113_coul>
25.0062233068102

> <r_glide_res:A113_hbond>
0

> <r_glide_res:A113_dist>
2.4224510043391

> <r_glide_res:A113_Eint>
23.1025140169114

> <r_glide_res:A82_vdw>
1.84326880563585

> <r_glide_res:A82_coul>
-53.9241037091348

> <r_glide_res:A82_hbond>
-0.225443085380136

> <r_glide_res:A82_dist>
1.67773267999569

> <r_glide_res:A82_Eint>
-52.3062779888791

> <r_glide_res:A42_vdw>
1.68844960561901

> <r_glide_res:A42_coul>
-51.8220464890169

> <r_glide_res:A42_hbond>
-0.36

> <r_glide_res:A42_dist>
1.72602686042939

> <r_glide_res:A42_Eint>
-50.4935968833979

> <r_glide_res:A16_vdw>
-0.510292476023659

> <r_glide_res:A16_coul>
-27.7598308659731

> <r_glide_res:A16_hbond>
0

> <r_glide_res:A16_dist>
3.09752623467507

> <r_glide_res:A16_Eint>
-28.2701233419968

> <s_m_source_file>
ligprep_Nicaido_neutral.maegz

> <i_m_source_file_index>
18

> <i_lp_mmshare_version>
58128

> <i_f3d_flags>
0

> <s_lp_Force_Field>
S-OPLS

> <r_lp_Energy>
33.736216

> <b_lp_Chiralities_Consistent>
1

> <s_lp_Variant>
Ampicillin-1

> <s_epik_input>
W09IXUMoPU8pW0NAQEhdMUMoW0NIM10pKFtDSDNdKVNbQ0BASF0oTjEyKVtDQEhdKEMyPU8pW05IXUMoPU8pW0NAQEhdKFtOSDJdKWMzW2NIXVtjSF1bY0hdW2NIXVtjSF0z

> <s_epik_cmdline>
J2VwaWtfcHl0aG9uJywgJy1waHQnLCAnMC4wJywgJy1waCcsICc3LjQnLCAnLW50JywgJy1tYScsICc1MDAnLCAnLWltYWUnLCAnPGluZmlsZS5tYWU+JywgJy1vbWFlJywgJzxvdXRmaWxlLm1hZT4n

> <r_epik_Ionization_Penalty>
  0.1060

> <r_epik_Ionization_Penalty_Charging>
  0.0000

> <r_epik_Ionization_Penalty_Neutral>
  0.1059

> <r_epik_State_Penalty>
  0.1059

> <r_epik_Charging_Adjusted_Penalty>
0.105949346496876

> <i_epik_Tot_Q>
-1

> <i_epik_Tot_abs_Q>
1

> <s_epik_Chemistry_Notes>
This compound contains an acetal/aminal-like group ( X-CH(R)-Y where X, Y are N, S, or O) that may be acid/base labile, releasing an aldehyde.

> <s_m_subgroup_title>
glide-dock_Nicaido_neutral_pv1

> <s_m_subgroupid>
glide-dock_Nicaido_neutral_pv1

> <b_m_subgroup_collapsed>
0

$$$$
Sulbenicillin
                    3D
 Schrodinger Suite 2022-2.
 43 45  0  0  1  0            999 V2000
  -32.7980  -16.8377  -25.2852 C   0  0  0  0  0  0
  -32.2666  -18.2210  -24.8663 C   0  0  0  0  0  0
  -31.8765  -19.1534  -26.0716 C   0  0  2  0  0  0
  -30.4323  -19.2742  -26.0080 N   0  0  0  0  0  0
  -29.5698  -18.3983  -25.2407 C   0  0  1  0  0  0
  -30.7213  -17.9498  -23.9129 S   0  0  0  0  0  0
  -28.5318  -19.5293  -25.2005 C   0  0  2  0  0  0
  -29.5698  -20.3378  -25.9941 C   0  0  0  0  0  0
  -29.6791  -21.4724  -26.4135 O   0  0  0  0  0  0
  -28.3118  -20.0487  -23.8534 N   0  0  0  0  0  0
  -27.6994  -21.2156  -23.5971 C   0  0  0  0  0  0
  -27.6787  -21.6785  -22.1276 C   0  0  2  0  0  0
  -26.5213  -21.0271  -21.3731 C   0  0  0  0  0  0
  -25.1783  -21.2259  -21.7695 C   0  0  0  0  0  0
  -24.1287  -20.5796  -21.0885 C   0  0  0  0  0  0
  -24.4125  -19.7207  -20.0106 C   0  0  0  0  0  0
  -25.7463  -19.5132  -19.6142 C   0  0  0  0  0  0
  -26.7963  -20.1664  -20.2868 C   0  0  0  0  0  0
  -27.6560  -23.5364  -22.0133 S   0  0  0  0  0  0
  -26.3711  -23.9505  -22.5964 O   0  0  0  0  0  0
  -28.8132  -23.9663  -22.8134 O   0  5  0  0  0  0
  -27.7645  -23.8879  -20.5889 O   0  0  0  0  0  0
  -27.1892  -21.8959  -24.4943 O   0  0  0  0  0  0
  -32.3696  -18.7494  -27.4783 C   0  0  0  0  0  0
  -31.5301  -18.3496  -28.3190 O   0  5  0  0  0  0
  -33.5768  -18.9503  -27.7291 O   0  0  0  0  0  0
  -33.3011  -18.9065  -23.9580 C   0  0  0  0  0  0
  -33.7588  -16.9089  -25.7945 H   0  0  0  0  0  0
  -32.9361  -16.1903  -24.4184 H   0  0  0  0  0  0
  -32.0975  -16.3462  -25.9582 H   0  0  0  0  0  0
  -32.2745  -20.1530  -25.8906 H   0  0  0  0  0  0
  -29.2440  -17.5232  -25.8055 H   0  0  0  0  0  0
  -27.6169  -19.2772  -25.7387 H   0  0  0  0  0  0
  -28.6813  -19.5005  -23.0870 H   0  0  0  0  0  0
  -28.6193  -21.3794  -21.6638 H   0  0  0  0  0  0
  -24.9462  -21.8631  -22.6096 H   0  0  0  0  0  0
  -23.1070  -20.7324  -21.4015 H   0  0  0  0  0  0
  -23.6116  -19.2152  -19.4921 H   0  0  0  0  0  0
  -25.9683  -18.8453  -18.7955 H   0  0  0  0  0  0
  -27.8145  -19.9859  -19.9681 H   0  0  0  0  0  0
  -34.2276  -19.1050  -24.4977 H   0  0  0  0  0  0
  -32.9260  -19.8565  -23.5765 H   0  0  0  0  0  0
  -33.5454  -18.2826  -23.0968 H   0  0  0  0  0  0
  1  2  1  0  0  0
  1 28  1  0  0  0
  1 29  1  0  0  0
  1 30  1  0  0  0
  2  6  1  0  0  0
  2  3  1  0  0  0
  2 27  1  0  0  0
  3  4  1  0  0  0
  3 24  1  0  0  0
  3 31  1  0  0  0
  4  8  1  0  0  0
  4  5  1  0  0  0
  5  6  1  0  0  0
  5  7  1  0  0  0
  5 32  1  0  0  0
  7  8  1  0  0  0
  7 10  1  0  0  0
  7 33  1  0  0  0
  8  9  2  0  0  0
 10 11  1  0  0  0
 10 34  1  0  0  0
 11 12  1  0  0  0
 11 23  2  0  0  0
 12 13  1  0  0  0
 12 19  1  0  0  0
 12 35  1  0  0  0
 13 18  1  0  0  0
 13 14  2  0  0  0
 14 15  1  0  0  0
 14 36  1  0  0  0
 15 16  2  0  0  0
 15 37  1  0  0  0
 16 17  1  0  0  0
 16 38  1  0  0  0
 17 18  2  0  0  0
 17 39  1  0  0  0
 18 40  1  0  0  0
 19 20  2  0  0  0
 19 21  1  0  0  0
 19 22  2  0  0  0
 24 25  1  0  0  0
 24 26  2  0  0  0
 27 41  1  0  0  0
 27 42  1  0  0  0
 27 43  1  0  0  0
M  CHG  2  21  -1  25  -1
M  END
> <s_m_entry_id>
27588

> <s_m_entry_name>
data_maestro.23

> <s_m_Source_Path>
C:\Users\olshana1\Git\GramNeg-Accumulation\Gram Negative Permeation - OmpF

> <s_m_Source_File>
data_maestro.csv

> <i_m_Source_File_Index>
23

> <s_m_job_name>
glide-dock_Nicaido_neutral

> <s_i_glide_gridfile>
3POX-grid

> <i_i_glide_lignum>
30

> <i_i_glide_rotatable_bonds>
6

> <r_i_docking_score>
-4.53763600541214

> <r_i_glide_ligand_efficiency>
-0.168060592793042

> <r_i_glide_ligand_efficiency_sa>
-0.504181777825226

> <r_i_glide_ligand_efficiency_ln>
-1.05628685328377

> <r_i_glide_gscore>
-4.53763600541214

> <r_i_glide_lipo>
0

> <r_i_glide_hbond>
-0.683386248249124

> <r_i_glide_metal>
0

> <r_i_glide_rewards>
-0.596665801504722

> <r_i_glide_evdw>
-24.2629833221436

> <r_i_glide_ecoul>
-11.3940134048462

> <r_i_glide_erotb>
0.347763984117939

> <r_i_glide_esite>
-0.683096762942124

> <r_i_glide_emodel>
-58.2287033633173

> <r_i_glide_energy>
-35.6569967269897

> <r_i_glide_einternal>
4.06436634063721

> <i_i_glide_confnum>
6

> <i_i_glide_posenum>
294

> <r_i_glide_eff_state_penalty>
0

> <r_glide_res:A132_vdw>
-0.974581816368652

> <r_glide_res:A132_coul>
-60.6569088804251

> <r_glide_res:A132_hbond>
0

> <r_glide_res:A132_dist>
1.87154933739705

> <r_glide_res:A132_Eint>
-61.6314906967938

> <r_glide_res:A117_vdw>
-5.31300804978013

> <r_glide_res:A117_coul>
40.5331557626057

> <r_glide_res:A117_hbond>
0

> <r_glide_res:A117_dist>
2.25347609626668

> <r_glide_res:A117_Eint>
35.2201477128255

> <r_glide_res:A113_vdw>
-1.36574543852419

> <r_glide_res:A113_coul>
41.5811044830094

> <r_glide_res:A113_hbond>
0

> <r_glide_res:A113_dist>
3.34229865648728

> <r_glide_res:A113_Eint>
40.2153590444852

> <r_glide_res:A82_vdw>
0.258003244989322

> <r_glide_res:A82_coul>
-68.4091181222787

> <r_glide_res:A82_hbond>
-0.288642564472643

> <r_glide_res:A82_dist>
1.86841344892471

> <r_glide_res:A82_Eint>
-68.4397574417621

> <r_glide_res:A42_vdw>
-1.92173905152223

> <r_glide_res:A42_coul>
-62.7424724739689

> <r_glide_res:A42_hbond>
-0.197632873146372

> <r_glide_res:A42_dist>
2.02536743070535

> <r_glide_res:A42_Eint>
-64.8618443986375

> <r_glide_res:A16_vdw>
0.646899395567196

> <r_glide_res:A16_coul>
-74.6817141199212

> <r_glide_res:A16_hbond>
-0.197110810630109

> <r_glide_res:A16_dist>
1.8396155297909

> <r_glide_res:A16_Eint>
-74.2319255349841

> <s_m_source_file>
ligprep_Nicaido_neutral.maegz

> <i_m_source_file_index>
23

> <i_lp_mmshare_version>
58128

> <i_f3d_flags>
0

> <s_lp_Force_Field>
S-OPLS

> <r_lp_Energy>
22.166908

> <b_lp_Chiralities_Consistent>
1

> <s_lp_Variant>
Sulbenicillin-1

> <s_epik_input>
W09IXUMoPU8pW0NAQEhdMUMoW0NIM10pKFtDSDNdKVNbQ0BIXShOMTIpW0NASF0oQzI9TylbTkhdQyg9TylbQ0BASF0oUyg9TykoPU8pW09IXSljM1tjSF1bY0hdW2NIXVtjSF1bY0hdMw==

> <s_epik_cmdline>
J2VwaWtfcHl0aG9uJywgJy1waHQnLCAnMC4wJywgJy1waCcsICc3LjQnLCAnLW50JywgJy1tYScsICc1MDAnLCAnLWltYWUnLCAnPGluZmlsZS5tYWU+JywgJy1vbWFlJywgJzxvdXRmaWxlLm1hZT4n

> <r_lp_tautomer_probability>
1

> <r_epik_Ionization_Penalty>
  0.0000

> <r_epik_Ionization_Penalty_Charging>
  0.0000

> <r_epik_Ionization_Penalty_Neutral>
  0.0000

> <r_epik_State_Penalty>
  0.0000

> <r_epik_Charging_Adjusted_Penalty>
1.13251598244902e-05

> <i_epik_Tot_Q>
-2

> <i_epik_Tot_abs_Q>
2

> <s_epik_Chemistry_Notes>
This compound contains an acetal/aminal-like group ( X-CH(R)-Y where X, Y are N, S, or O) that may be acid/base labile, releasing an aldehyde.

> <s_m_subgroup_title>
glide-dock_Nicaido_neutral_pv1

> <s_m_subgroupid>
glide-dock_Nicaido_neutral_pv1

> <b_m_subgroup_collapsed>
0

$$$$
LY097964
                    3D
 Schrodinger Suite 2022-2.
 40 42  0  0  1  0            999 V2000
  -30.9055  -28.7786  -31.2118 C   0  0  0  0  0  0
  -31.5689  -27.5436  -30.9434 O   0  0  0  0  0  0
  -31.2788  -27.1185  -29.6315 N   0  0  0  0  0  0
  -32.1787  -26.3496  -29.1445 C   0  0  0  0  0  0
  -33.4362  -25.9541  -29.8607 C   0  0  0  0  0  0
  -34.6723  -26.3496  -29.3942 C   0  0  0  0  0  0
  -35.9626  -25.9299  -30.4889 S   0  0  0  0  0  0
  -34.7648  -25.2366  -31.5667 C   0  0  0  0  0  0
  -35.1094  -24.7496  -32.8134 N   0  0  0  0  0  0
  -33.5165  -25.2799  -31.0905 N   0  0  0  0  0  0
  -31.9690  -25.7902  -27.7490 C   0  0  0  0  0  0
  -33.0029  -25.0939  -27.2264 N   0  0  0  0  0  0
  -33.0321  -24.2586  -26.0114 C   0  0  1  0  0  0
  -32.3920  -24.8622  -24.7406 C   0  0  1  0  0  0
  -31.6232  -23.6273  -24.6464 N   0  0  0  0  0  0
  -31.8800  -23.2386  -25.9512 C   0  0  0  0  0  0
  -31.3655  -22.4512  -26.7136 O   0  0  0  0  0  0
  -30.6824  -23.4789  -23.6102 C   0  0  0  0  0  0
  -29.1785  -23.1496  -24.0134 C   0  0  0  0  0  0
  -28.2884  -23.5497  -23.2285 O   0  5  0  0  0  0
  -28.9737  -22.7495  -25.1823 O   0  0  0  0  0  0
  -31.1489  -23.6236  -22.3408 C   0  0  0  0  0  0
  -32.6249  -23.9114  -22.0777 C   0  0  0  0  0  0
  -33.3444  -25.1496  -23.2031 S   0  0  0  0  0  0
  -30.3592  -23.4039  -21.0575 C   0  0  0  0  0  0
  -30.8904  -25.9496  -27.1776 O   0  0  0  0  0  0
  -31.1690  -29.1089  -32.2157 H   0  0  0  0  0  0
  -29.8274  -28.7496  -31.1387 H   0  0  0  0  0  0
  -31.1689  -29.5758  -30.5310 H   0  0  0  0  0  0
  -34.8973  -26.9164  -28.5017 H   0  0  0  0  0  0
  -34.3314  -24.6629  -33.4600 H   0  0  0  0  0  0
  -35.9149  -25.1495  -33.2900 H   0  0  0  0  0  0
  -33.8422  -25.0512  -27.7871 H   0  0  0  0  0  0
  -34.0152  -23.8305  -25.8114 H   0  0  0  0  0  0
  -31.7363  -25.7126  -24.9168 H   0  0  0  0  0  0
  -32.7690  -24.2680  -21.0567 H   0  0  0  0  0  0
  -33.1791  -22.9766  -22.1661 H   0  0  0  0  0  0
  -30.2399  -24.3439  -20.5196 H   0  0  0  0  0  0
  -29.3807  -22.9520  -21.1948 H   0  0  0  0  0  0
  -30.9126  -22.7201  -20.4134 H   0  0  0  0  0  0
  1  2  1  0  0  0
  1 27  1  0  0  0
  1 28  1  0  0  0
  1 29  1  0  0  0
  2  3  1  0  0  0
  3  4  2  3  0  0
  4  5  1  0  0  0
  4 11  1  0  0  0
  5 10  1  0  0  0
  5  6  2  0  0  0
  6  7  1  0  0  0
  6 30  1  0  0  0
  7  8  1  0  0  0
  8  9  1  0  0  0
  8 10  2  0  0  0
  9 31  1  0  0  0
  9 32  1  0  0  0
 11 12  1  0  0  0
 11 26  2  0  0  0
 12 13  1  0  0  0
 12 33  1  0  0  0
 13 16  1  0  0  0
 13 14  1  0  0  0
 13 34  1  0  0  0
 14 24  1  0  0  0
 14 15  1  0  0  0
 14 35  1  0  0  0
 15 16  1  0  0  0
 15 18  1  0  0  0
 16 17  2  0  0  0
 18 19  1  0  0  0
 18 22  2  0  0  0
 19 20  1  0  0  0
 19 21  2  0  0  0
 22 23  1  0  0  0
 22 25  1  0  0  0
 23 24  1  0  0  0
 23 36  1  0  0  0
 23 37  1  0  0  0
 25 38  1  0  0  0
 25 39  1  0  0  0
 25 40  1  0  0  0
M  CHG  1  20  -1
M  END
> <s_m_entry_id>
27589

> <s_m_entry_name>
data_maestro.7

> <s_m_Source_Path>
C:\Users\olshana1\Git\GramNeg-Accumulation\Gram Negative Permeation - OmpF

> <s_m_Source_File>
data_maestro.csv

> <i_m_Source_File_Index>
7

> <s_m_job_name>
glide-dock_Nicaido_neutral

> <s_i_glide_gridfile>
3POX-grid

> <i_i_glide_lignum>
9

> <i_i_glide_rotatable_bonds>
6

> <r_i_docking_score>
-4.53495818068194

> <r_i_glide_ligand_efficiency>
-0.174421468487767

> <r_i_glide_ligand_efficiency_sa>
-0.516722914079672

> <r_i_glide_ligand_efficiency_ln>
-1.06502004832166

> <r_i_glide_gscore>
-4.53495818068194

> <r_i_glide_lipo>
-0.421124653396386

> <r_i_glide_hbond>
-0.980119848822891

> <r_i_glide_metal>
0

> <r_i_glide_rewards>
-0.612517092936552

> <r_i_glide_evdw>
-20.6035270690918

> <r_i_glide_ecoul>
-11.8941469192505

> <r_i_glide_erotb>
0.622478626066327

> <r_i_glide_esite>
-0.329376820250277

> <r_i_glide_emodel>
-50.8697956984307

> <r_i_glide_energy>
-32.4976739883423

> <r_i_glide_einternal>
8.28095722198486

> <i_i_glide_confnum>
70

> <i_i_glide_posenum>
40

> <r_i_glide_eff_state_penalty>
0

> <r_glide_res:A132_vdw>
-1.24124319492431

> <r_glide_res:A132_coul>
-29.7379341614341

> <r_glide_res:A132_hbond>
0

> <r_glide_res:A132_dist>
2.42295379922504

> <r_glide_res:A132_Eint>
-30.9791773563584

> <r_glide_res:A117_vdw>
-0.193070835663302

> <r_glide_res:A117_coul>
25.1270049804524

> <r_glide_res:A117_hbond>
0

> <r_glide_res:A117_dist>
6.69395884643743

> <r_glide_res:A117_Eint>
24.9339341447891

> <r_glide_res:A113_vdw>
-1.14149815563032

> <r_glide_res:A113_coul>
22.7898305995518

> <r_glide_res:A113_hbond>
0

> <r_glide_res:A113_dist>
2.40178157734135

> <r_glide_res:A113_Eint>
21.6483324439214

> <r_glide_res:A82_vdw>
-2.8494223647263

> <r_glide_res:A82_coul>
-46.114155290019

> <r_glide_res:A82_hbond>
-0.183343512535991

> <r_glide_res:A82_dist>
2.02788146903001

> <r_glide_res:A82_Eint>
-49.1469211672813

> <r_glide_res:A42_vdw>
3.16396026705278

> <r_glide_res:A42_coul>
-57.9396290450818

> <r_glide_res:A42_hbond>
-0.343706442437255

> <r_glide_res:A42_dist>
1.68612834294737

> <r_glide_res:A42_Eint>
-55.1193752204663

> <r_glide_res:A16_vdw>
-2.88649603451772

> <r_glide_res:A16_coul>
-40.2159842226601

> <r_glide_res:A16_hbond>
-0.0318191023667499

> <r_glide_res:A16_dist>
2.18918303470554

> <r_glide_res:A16_Eint>
-43.1342993595446

> <s_m_source_file>
ligprep_Nicaido_neutral.maegz

> <i_m_source_file_index>
7

> <i_lp_mmshare_version>
58128

> <i_f3d_flags>
0

> <s_lp_Force_Field>
S-OPLS

> <r_lp_Energy>
53.750759

> <b_lp_Chiralities_Consistent>
1

> <s_lp_Variant>
LY097964-1

> <s_epik_input>
W05IMl1jKG4xKXNbY0hdYzEvQyg9TlxPW0NIM10pQyg9TylbTkhdW0NAQEhdMkMoPU8pTihbQ0BIXTIzKUMoQyg9TylbT0hdKT1DKFtDSDJdUzMpW0NIM10=

> <s_epik_cmdline>
J2VwaWtfcHl0aG9uJywgJy1waHQnLCAnMC4wJywgJy1waCcsICc3LjQnLCAnLW50JywgJy1tYScsICc1MDAnLCAnLWltYWUnLCAnPGluZmlsZS5tYWU+JywgJy1vbWFlJywgJzxvdXRmaWxlLm1hZT4n

> <r_lp_tautomer_probability>
1

> <r_epik_Ionization_Penalty>
  0.0005

> <r_epik_Ionization_Penalty_Charging>
  0.0000

> <r_epik_Ionization_Penalty_Neutral>
  0.0005

> <r_epik_State_Penalty>
  0.0000

> <r_epik_Charging_Adjusted_Penalty>
1.64985111359435e-05

> <i_epik_Tot_Q>
-1

> <i_epik_Tot_abs_Q>
1

> <s_epik_Chemistry_Notes>
This compound has an imine and may undergo hydrolysis. This compound contains an acetal/aminal-like group ( X-CH(R)-Y where X, Y are N, S, or O) that may be acid/base labile, releasing an aldehyde.

> <s_m_subgroup_title>
glide-dock_Nicaido_neutral_pv1

> <s_m_subgroupid>
glide-dock_Nicaido_neutral_pv1

> <b_m_subgroup_collapsed>
0

$$$$
Cefotaxime
                    3D
 Schrodinger Suite 2022-2.
 46 48  0  0  1  0            999 V2000
  -18.8151  -21.8617  -25.1262 C   0  0  0  0  0  0
  -20.0159  -22.7470  -25.4266 C   0  0  0  0  0  0
  -21.0132  -22.0655  -26.0127 O   0  0  0  0  0  0
  -22.2405  -22.7012  -26.3508 C   0  0  0  0  0  0
  -23.3611  -22.2115  -25.4421 C   0  0  0  0  0  0
  -24.0277  -23.0096  -24.5650 C   0  0  0  0  0  0
  -25.0620  -22.5159  -23.7466 N   0  0  0  0  0  0
  -25.8032  -21.3077  -24.0731 C   0  0  1  0  0  0
  -26.5599  -21.4987  -22.7457 C   0  0  2  0  0  0
  -25.9018  -22.9033  -22.7154 C   0  0  0  0  0  0
  -26.0637  -23.9496  -22.1239 O   0  0  0  0  0  0
  -28.0279  -21.4917  -22.8740 N   0  0  0  0  0  0
  -28.7999  -22.3247  -23.6037 C   0  0  0  0  0  0
  -30.2731  -22.2307  -23.2992 C   0  0  0  0  0  0
  -30.7880  -20.8484  -23.1145 C   0  0  0  0  0  0
  -31.3916  -20.4449  -21.9463 C   0  0  0  0  0  0
  -31.9027  -18.7804  -22.0141 S   0  0  0  0  0  0
  -31.2725  -18.7009  -23.6519 C   0  0  0  0  0  0
  -31.3625  -17.5495  -24.4062 N   0  0  0  0  0  0
  -30.7161  -19.8338  -24.0777 N   0  0  0  0  0  0
  -30.9647  -23.2988  -23.2295 N   0  0  0  0  0  0
  -32.3211  -23.0545  -22.9773 O   0  0  0  0  0  0
  -32.9289  -24.2842  -22.6244 C   0  0  0  0  0  0
  -28.3695  -23.1496  -24.4133 O   0  0  0  0  0  0
  -24.6092  -19.9689  -24.2969 S   0  0  0  0  0  0
  -23.6668  -20.7254  -25.6436 C   0  0  0  0  0  0
  -23.6901  -24.5312  -24.4034 C   0  0  0  0  0  0
  -22.7686  -24.8273  -23.6134 O   0  5  0  0  0  0
  -24.3689  -25.3307  -25.0883 O   0  0  0  0  0  0
  -20.0084  -23.9495  -25.1604 O   0  0  0  0  0  0
  -19.1358  -20.9415  -24.6378 H   0  0  0  0  0  0
  -18.1147  -22.3763  -24.4686 H   0  0  0  0  0  0
  -18.2990  -21.6030  -26.0507 H   0  0  0  0  0  0
  -22.1505  -23.7872  -26.3492 H   0  0  0  0  0  0
  -22.4929  -22.4267  -27.3754 H   0  0  0  0  0  0
  -26.4111  -21.4405  -24.9692 H   0  0  0  0  0  0
  -26.1992  -20.8223  -21.9694 H   0  0  0  0  0  0
  -28.5053  -20.8410  -22.2637 H   0  0  0  0  0  0
  -31.5693  -21.0207  -21.0478 H   0  0  0  0  0  0
  -30.6943  -17.4168  -25.1508 H   0  0  0  0  0  0
  -31.5670  -16.6975  -23.8933 H   0  0  0  0  0  0
  -33.9871  -24.1211  -22.4186 H   0  0  0  0  0  0
  -32.8530  -25.0130  -23.4329 H   0  0  0  0  0  0
  -32.4777  -24.7063  -21.7241 H   0  0  0  0  0  0
  -22.7431  -20.1563  -25.7514 H   0  0  0  0  0  0
  -24.2218  -20.6079  -26.5746 H   0  0  0  0  0  0
  1  2  1  0  0  0
  1 31  1  0  0  0
  1 32  1  0  0  0
  1 33  1  0  0  0
  2  3  1  0  0  0
  2 30  2  0  0  0
  3  4  1  0  0  0
  4  5  1  0  0  0
  4 34  1  0  0  0
  4 35  1  0  0  0
  5 26  1  0  0  0
  5  6  2  0  0  0
  6  7  1  0  0  0
  6 27  1  0  0  0
  7 10  1  0  0  0
  7  8  1  0  0  0
  8  9  1  0  0  0
  8 25  1  0  0  0
  8 36  1  0  0  0
  9 10  1  0  0  0
  9 12  1  0  0  0
  9 37  1  0  0  0
 10 11  2  0  0  0
 12 13  1  0  0  0
 12 38  1  0  0  0
 13 14  1  0  0  0
 13 24  2  0  0  0
 14 15  1  0  0  0
 14 21  2  3  0  0
 15 20  1  0  0  0
 15 16  2  0  0  0
 16 17  1  0  0  0
 16 39  1  0  0  0
 17 18  1  0  0  0
 18 19  1  0  0  0
 18 20  2  0  0  0
 19 40  1  0  0  0
 19 41  1  0  0  0
 21 22  1  0  0  0
 22 23  1  0  0  0
 23 42  1  0  0  0
 23 43  1  0  0  0
 23 44  1  0  0  0
 25 26  1  0  0  0
 26 45  1  0  0  0
 26 46  1  0  0  0
 27 28  1  0  0  0
 27 29  2  0  0  0
M  CHG  1  28  -1
M  END
> <s_m_entry_id>
27590

> <s_m_entry_name>
data_maestro.6

> <s_m_Source_Path>
C:\Users\olshana1\Git\GramNeg-Accumulation\Gram Negative Permeation - OmpF

> <s_m_Source_File>
data_maestro.csv

> <i_m_Source_File_Index>
6

> <s_m_job_name>
glide-dock_Nicaido_neutral

> <s_i_glide_gridfile>
3POX-grid

> <i_i_glide_lignum>
7

> <i_i_glide_rotatable_bonds>
9

> <r_i_docking_score>
-4.53133839652055

> <r_i_glide_ligand_efficiency>
-0.151044613217352

> <r_i_glide_ligand_efficiency_sa>
-0.469330731506087

> <r_i_glide_ligand_efficiency_ln>
-1.02956945657576

> <r_i_glide_gscore>
-4.53133839652055

> <r_i_glide_lipo>
-0.0375033651544316

> <r_i_glide_hbond>
-0.955304219297811

> <r_i_glide_metal>
0

> <r_i_glide_rewards>
-0.300802408948782

> <r_i_glide_evdw>
-30.2282543182373

> <r_i_glide_ecoul>
-12.019905090332

> <r_i_glide_erotb>
0.680611118548691

> <r_i_glide_esite>
-0.603941042206547

> <r_i_glide_emodel>
-62.8262247452457

> <r_i_glide_energy>
-42.2481594085693

> <r_i_glide_einternal>
7.71213483810425

> <i_i_glide_confnum>
242

> <i_i_glide_posenum>
126

> <r_i_glide_eff_state_penalty>
0

> <r_glide_res:A132_vdw>
-1.26193727190576

> <r_glide_res:A132_coul>
-35.3746719688844

> <r_glide_res:A132_hbond>
-0.0943336176820722

> <r_glide_res:A132_dist>
2.15177866570623

> <r_glide_res:A132_Eint>
-36.7309428584722

> <r_glide_res:A117_vdw>
-3.27105717744034

> <r_glide_res:A117_coul>
18.5350775871389

> <r_glide_res:A117_hbond>
0

> <r_glide_res:A117_dist>
2.86365448752987

> <r_glide_res:A117_Eint>
15.2640204096985

> <r_glide_res:A113_vdw>
-2.79765826018374

> <r_glide_res:A113_coul>
10.297627757245

> <r_glide_res:A113_hbond>
0

> <r_glide_res:A113_dist>
2.736160203771

> <r_glide_res:A113_Eint>
7.49996949706127

> <r_glide_res:A82_vdw>
-3.06586930469651

> <r_glide_res:A82_coul>
-47.0607937900493

> <r_glide_res:A82_hbond>
-0.232948175905439

> <r_glide_res:A82_dist>
2.05907328973563

> <r_glide_res:A82_Eint>
-50.3596112706512

> <r_glide_res:A42_vdw>
-3.30742688601005

> <r_glide_res:A42_coul>
-37.29410226897

> <r_glide_res:A42_hbond>
-0.108022425710299

> <r_glide_res:A42_dist>
2.01143263296333

> <r_glide_res:A42_Eint>
-40.7095515806903

> <r_glide_res:A16_vdw>
-0.519865399112157

> <r_glide_res:A16_coul>
-19.9957628775957

> <r_glide_res:A16_hbond>
0

> <r_glide_res:A16_dist>
4.2750695333904

> <r_glide_res:A16_Eint>
-20.5156282767078

> <s_m_source_file>
ligprep_Nicaido_neutral.maegz

> <i_m_source_file_index>
6

> <i_lp_mmshare_version>
58128

> <i_f3d_flags>
0

> <s_lp_Force_Field>
S-OPLS

> <r_lp_Energy>
53.728996

> <b_lp_Chiralities_Consistent>
1

> <s_lp_Variant>
Cefotaxime-1

> <s_epik_input>
W0NIM11DKD1PKU9bQ0gyXUMoPUMxQyg9TylbT0hdKVtDSDJdU1tDQEBIXShOMTIpW0NASF0oQzI9TylbTkhdQyg9TykvQyg9Ti9PW0NIM10pYzNbY0hdc2MobjMpW05IMl0=

> <s_epik_cmdline>
J2VwaWtfcHl0aG9uJywgJy1waHQnLCAnMC4wJywgJy1waCcsICc3LjQnLCAnLW50JywgJy1tYScsICc1MDAnLCAnLWltYWUnLCAnPGluZmlsZS5tYWU+JywgJy1vbWFlJywgJzxvdXRmaWxlLm1hZT4n

> <r_lp_tautomer_probability>
1

> <r_epik_Ionization_Penalty>
  0.0004

> <r_epik_Ionization_Penalty_Charging>
  0.0000

> <r_epik_Ionization_Penalty_Neutral>
  0.0004

> <r_epik_State_Penalty>
  0.0000

> <r_epik_Charging_Adjusted_Penalty>
5.45682606121274e-06

> <i_epik_Tot_Q>
-1

> <i_epik_Tot_abs_Q>
1

> <s_epik_Chemistry_Notes>
This compound has an ester and may undergo hydrolysis at high or low pH. This compound has an imine and may undergo hydrolysis. This compound contains an acetal/aminal-like group ( X-CH(R)-Y where X, Y are N, S, or O) that may be acid/base labile, releasing an aldehyde.

> <s_m_subgroup_title>
glide-dock_Nicaido_neutral_pv1

> <s_m_subgroupid>
glide-dock_Nicaido_neutral_pv1

> <b_m_subgroup_collapsed>
0

$$$$
Carbenicillin
                    3D
 Schrodinger Suite 2022-2.
 42 44  0  0  1  0            999 V2000
  -22.6794  -22.7642  -19.8580 C   0  0  0  0  0  0
  -22.4986  -22.1708  -21.2708 C   0  0  0  0  0  0
  -23.1354  -23.0244  -22.4220 C   0  0  2  0  0  0
  -24.4749  -22.4823  -22.5513 N   0  0  0  0  0  0
  -24.7415  -21.0619  -22.4427 C   0  0  2  0  0  0
  -23.4154  -20.5767  -21.2901 S   0  0  0  0  0  0
  -26.1858  -21.4084  -22.0530 C   0  0  2  0  0  0
  -25.7840  -22.8664  -22.3745 C   0  0  0  0  0  0
  -26.3322  -23.9496  -22.4133 O   0  0  0  0  0  0
  -27.1438  -20.8045  -22.9801 N   0  0  0  0  0  0
  -28.4208  -21.1876  -23.1438 C   0  0  0  0  0  0
  -29.2273  -20.4360  -24.2356 C   0  0  2  0  0  0
  -30.6264  -19.9955  -23.7861 C   0  0  0  0  0  0
  -30.9857  -18.6331  -23.8927 C   0  0  0  0  0  0
  -32.2746  -18.2032  -23.5237 C   0  0  0  0  0  0
  -33.2115  -19.1246  -23.0194 C   0  0  0  0  0  0
  -32.8656  -20.4839  -22.9090 C   0  0  0  0  0  0
  -31.5846  -20.9184  -23.3000 C   0  0  0  0  0  0
  -29.3402  -21.3220  -25.5025 C   0  0  0  0  0  0
  -28.6353  -22.3496  -25.6114 O   0  5  0  0  0  0
  -30.1156  -20.9549  -26.4133 O   0  0  0  0  0  0
  -28.9173  -22.1071  -22.4881 O   0  0  0  0  0  0
  -23.0202  -24.5628  -22.3185 C   0  0  0  0  0  0
  -23.5691  -25.1507  -21.3620 O   0  5  0  0  0  0
  -22.3691  -25.1495  -23.2134 O   0  0  0  0  0  0
  -21.0043  -21.9182  -21.5345 C   0  0  0  0  0  0
  -22.1013  -23.6776  -19.7234 H   0  0  0  0  0  0
  -22.3506  -22.0616  -19.0917 H   0  0  0  0  0  0
  -23.7270  -22.9969  -19.6585 H   0  0  0  0  0  0
  -22.6475  -22.7461  -23.3573 H   0  0  0  0  0  0
  -24.6425  -20.5402  -23.3970 H   0  0  0  0  0  0
  -26.3973  -21.2100  -21.0016 H   0  0  0  0  0  0
  -26.8167  -20.0201  -23.5262 H   0  0  0  0  0  0
  -28.6648  -19.5473  -24.5263 H   0  0  0  0  0  0
  -30.2776  -17.9075  -24.2662 H   0  0  0  0  0  0
  -32.5370  -17.1578  -23.6135 H   0  0  0  0  0  0
  -34.1926  -18.7886  -22.7189 H   0  0  0  0  0  0
  -33.5828  -21.1940  -22.5244 H   0  0  0  0  0  0
  -31.3422  -21.9669  -23.2232 H   0  0  0  0  0  0
  -20.4425  -22.8532  -21.5509 H   0  0  0  0  0  0
  -20.8496  -21.4224  -22.4933 H   0  0  0  0  0  0
  -20.5701  -21.2805  -20.7635 H   0  0  0  0  0  0
  1  2  1  0  0  0
  1 27  1  0  0  0
  1 28  1  0  0  0
  1 29  1  0  0  0
  2  6  1  0  0  0
  2  3  1  0  0  0
  2 26  1  0  0  0
  3  4  1  0  0  0
  3 23  1  0  0  0
  3 30  1  0  0  0
  4  8  1  0  0  0
  4  5  1  0  0  0
  5  6  1  0  0  0
  5  7  1  0  0  0
  5 31  1  0  0  0
  7  8  1  0  0  0
  7 10  1  0  0  0
  7 32  1  0  0  0
  8  9  2  0  0  0
 10 11  1  0  0  0
 10 33  1  0  0  0
 11 12  1  0  0  0
 11 22  2  0  0  0
 12 13  1  0  0  0
 12 19  1  0  0  0
 12 34  1  0  0  0
 13 18  1  0  0  0
 13 14  2  0  0  0
 14 15  1  0  0  0
 14 35  1  0  0  0
 15 16  2  0  0  0
 15 36  1  0  0  0
 16 17  1  0  0  0
 16 37  1  0  0  0
 17 18  2  0  0  0
 17 38  1  0  0  0
 18 39  1  0  0  0
 19 20  1  0  0  0
 19 21  2  0  0  0
 23 24  1  0  0  0
 23 25  2  0  0  0
 26 40  1  0  0  0
 26 41  1  0  0  0
 26 42  1  0  0  0
M  CHG  2  20  -1  24  -1
M  END
> <s_m_entry_id>
27591

> <s_m_entry_name>
data_maestro.24

> <s_m_Source_Path>
C:\Users\olshana1\Git\GramNeg-Accumulation\Gram Negative Permeation - OmpF

> <s_m_Source_File>
data_maestro.csv

> <i_m_Source_File_Index>
24

> <s_m_job_name>
glide-dock_Nicaido_neutral

> <s_i_glide_gridfile>
3POX-grid

> <i_i_glide_lignum>
31

> <i_i_glide_rotatable_bonds>
6

> <r_i_docking_score>
-4.52966404417339

> <r_i_glide_ligand_efficiency>
-0.174217847852823

> <r_i_glide_ligand_efficiency_sa>
-0.516119688749858

> <r_i_glide_ligand_efficiency_ln>
-1.06377673773411

> <r_i_glide_gscore>
-4.52966404417339

> <r_i_glide_lipo>
0

> <r_i_glide_hbond>
-0.903174996300324

> <r_i_glide_metal>
0

> <r_i_glide_rewards>
-0.842830961304285

> <r_i_glide_evdw>
-13.3543300628662

> <r_i_glide_ecoul>
-14.2484493255615

> <r_i_glide_erotb>
0.409918473255716

> <r_i_glide_esite>
-0.388592657846955

> <r_i_glide_emodel>
-51.291328734557

> <r_i_glide_energy>
-27.6027793884277

> <r_i_glide_einternal>
4.35606956481934

> <i_i_glide_confnum>
5

> <i_i_glide_posenum>
388

> <r_i_glide_eff_state_penalty>
0

> <r_glide_res:A132_vdw>
-0.990135728821962

> <r_glide_res:A132_coul>
-64.4286373827927

> <r_glide_res:A132_hbond>
-0.0316186254016922

> <r_glide_res:A132_dist>
2.35546012318855

> <r_glide_res:A132_Eint>
-65.4503917370163

> <r_glide_res:A117_vdw>
-2.3865215615558

> <r_glide_res:A117_coul>
38.2816079826387

> <r_glide_res:A117_hbond>
0

> <r_glide_res:A117_dist>
2.8169398029666

> <r_glide_res:A117_Eint>
35.8950864210829

> <r_glide_res:A113_vdw>
-1.46806621469866

> <r_glide_res:A113_coul>
42.2033679091933

> <r_glide_res:A113_hbond>
0

> <r_glide_res:A113_dist>
3.93791411911924

> <r_glide_res:A113_Eint>
40.7353016944947

> <r_glide_res:A82_vdw>
-1.37243086200064

> <r_glide_res:A82_coul>
-66.4980147495832

> <r_glide_res:A82_hbond>
-0.157066776469131

> <r_glide_res:A82_dist>
1.99412312291032

> <r_glide_res:A82_Eint>
-68.027512388053

> <r_glide_res:A42_vdw>
3.4065353670437

> <r_glide_res:A42_coul>
-75.8398322073387

> <r_glide_res:A42_hbond>
-0.314489594429501

> <r_glide_res:A42_dist>
1.7179291608543

> <r_glide_res:A42_Eint>
-72.7477864347245

> <r_glide_res:A16_vdw>
1.73974329481307

> <r_glide_res:A16_coul>
-68.9553947853204

> <r_glide_res:A16_hbond>
-0.2

> <r_glide_res:A16_dist>
1.72766477554658

> <r_glide_res:A16_Eint>
-67.4156514905073

> <s_m_source_file>
ligprep_Nicaido_neutral.maegz

> <i_m_source_file_index>
24

> <i_lp_mmshare_version>
58128

> <i_f3d_flags>
0

> <s_lp_Force_Field>
S-OPLS

> <r_lp_Energy>
37.112724

> <b_lp_Chiralities_Consistent>
1

> <s_lp_Variant>
Carbenicillin-1

> <s_epik_input>
W09IXUMoPU8pW0NAQEhdMUMoW0NIM10pKFtDSDNdKVNbQ0BASF0oTjEyKVtDQEhdKEMyPU8pW05IXUMoPU8pW0NAQEhdKEMoPU8pW09IXSljM1tjSF1bY0hdW2NIXVtjSF1bY0hdMw==

> <s_epik_cmdline>
J2VwaWtfcHl0aG9uJywgJy1waHQnLCAnMC4wJywgJy1waCcsICc3LjQnLCAnLW50JywgJy1tYScsICc1MDAnLCAnLWltYWUnLCAnPGluZmlsZS5tYWU+JywgJy1vbWFlJywgJzxvdXRmaWxlLm1hZT4n

> <r_lp_tautomer_probability>
1

> <r_epik_Ionization_Penalty>
  0.0000

> <r_epik_Ionization_Penalty_Charging>
  0.0000

> <r_epik_Ionization_Penalty_Neutral>
  0.0000

> <r_epik_State_Penalty>
  0.0000

> <r_epik_Charging_Adjusted_Penalty>
4.98035685666923e-05

> <i_epik_Tot_Q>
-2

> <i_epik_Tot_abs_Q>
2

> <s_epik_Chemistry_Notes>
This compound contains an acetal/aminal-like group ( X-CH(R)-Y where X, Y are N, S, or O) that may be acid/base labile, releasing an aldehyde.

> <s_m_subgroup_title>
glide-dock_Nicaido_neutral_pv1

> <s_m_subgroupid>
glide-dock_Nicaido_neutral_pv1

> <b_m_subgroup_collapsed>
0

$$$$
Penicillin N
                    3D
 Schrodinger Suite 2022-2.
 44 45  0  0  1  0            999 V2000
  -20.8439  -22.0044  -22.1979 C   0  0  0  0  0  0
  -20.0481  -22.0382  -23.5185 C   0  0  0  0  0  0
  -18.5710  -21.7192  -23.2055 C   0  0  0  0  0  0
  -20.2916  -23.4119  -24.2387 C   0  0  2  0  0  0
  -19.1383  -23.9820  -25.0898 C   0  0  0  0  0  0
  -18.7689  -25.1482  -24.8134 O   0  5  0  0  0  0
  -18.6700  -23.2848  -26.0130 O   0  0  0  0  0  0
  -21.4409  -23.1455  -25.0794 N   0  0  0  0  0  0
  -21.6979  -21.8669  -25.7158 C   0  0  1  0  0  0
  -23.2030  -22.1691  -25.5992 C   0  0  2  0  0  0
  -23.8322  -21.3043  -24.5974 N   0  0  0  0  0  0
  -25.0478  -21.4727  -24.0555 C   0  0  0  0  0  0
  -25.4396  -20.5289  -22.9178 C   0  0  0  0  0  0
  -25.4528  -21.2457  -21.5476 C   0  0  0  0  0  0
  -26.7595  -21.0843  -20.7407 C   0  0  0  0  0  0
  -28.0067  -21.8314  -21.2887 C   0  0  2  0  0  0
  -29.1690  -21.5783  -20.4132 N   0  3  0  0  0  0
  -27.8098  -23.3591  -21.3835 C   0  0  0  0  0  0
  -27.2848  -23.9495  -20.4134 O   0  5  0  0  0  0
  -28.2114  -23.9495  -22.4134 O   0  0  0  0  0  0
  -25.8315  -22.3498  -24.4133 O   0  0  0  0  0  0
  -22.7516  -23.5437  -25.0600 C   0  0  0  0  0  0
  -23.2744  -24.5643  -24.6606 O   0  0  0  0  0  0
  -20.7474  -20.7509  -24.6259 S   0  0  0  0  0  0
  -20.4757  -22.7519  -21.4944 H   0  0  0  0  0  0
  -20.7658  -21.0303  -21.7138 H   0  0  0  0  0  0
  -21.9040  -22.1999  -22.3620 H   0  0  0  0  0  0
  -18.1119  -22.5103  -22.6114 H   0  0  0  0  0  0
  -17.9773  -21.5938  -24.1114 H   0  0  0  0  0  0
  -18.4815  -20.7892  -22.6426 H   0  0  0  0  0  0
  -20.5548  -24.1705  -23.4996 H   0  0  0  0  0  0
  -21.3343  -21.8273  -26.7445 H   0  0  0  0  0  0
  -23.7056  -22.1796  -26.5673 H   0  0  0  0  0  0
  -23.2620  -20.5452  -24.2499 H   0  0  0  0  0  0
  -26.4212  -20.1147  -23.1498 H   0  0  0  0  0  0
  -24.7618  -19.6739  -22.8865 H   0  0  0  0  0  0
  -24.6380  -20.8332  -20.9513 H   0  0  0  0  0  0
  -25.2099  -22.3044  -21.6460 H   0  0  0  0  0  0
  -26.9857  -20.0200  -20.6578 H   0  0  0  0  0  0
  -26.5675  -21.4122  -19.7176 H   0  0  0  0  0  0
  -28.2476  -21.4409  -22.2783 H   0  0  0  0  0  0
  -29.9882  -22.0291  -20.7893 H   0  0  0  0  0  0
  -28.9925  -21.9623  -19.4950 H   0  0  0  0  0  0
  -29.3517  -20.5884  -20.3131 H   0  0  0  0  0  0
  1  2  1  0  0  0
  1 25  1  0  0  0
  1 26  1  0  0  0
  1 27  1  0  0  0
  2 24  1  0  0  0
  2  3  1  0  0  0
  2  4  1  0  0  0
  3 28  1  0  0  0
  3 29  1  0  0  0
  3 30  1  0  0  0
  4  5  1  0  0  0
  4  8  1  0  0  0
  4 31  1  0  0  0
  5  6  1  0  0  0
  5  7  2  0  0  0
  8 22  1  0  0  0
  8  9  1  0  0  0
  9 10  1  0  0  0
  9 24  1  0  0  0
  9 32  1  0  0  0
 10 11  1  0  0  0
 10 22  1  0  0  0
 10 33  1  0  0  0
 11 12  1  0  0  0
 11 34  1  0  0  0
 12 13  1  0  0  0
 12 21  2  0  0  0
 13 14  1  0  0  0
 13 35  1  0  0  0
 13 36  1  0  0  0
 14 15  1  0  0  0
 14 37  1  0  0  0
 14 38  1  0  0  0
 15 16  1  0  0  0
 15 39  1  0  0  0
 15 40  1  0  0  0
 16 17  1  0  0  0
 16 18  1  0  0  0
 16 41  1  0  0  0
 17 42  1  0  0  0
 17 43  1  0  0  0
 17 44  1  0  0  0
 18 19  1  0  0  0
 18 20  2  0  0  0
 22 23  2  0  0  0
M  CHG  3   6  -1  17   1  19  -1
M  END
> <s_m_entry_id>
27592

> <s_m_entry_name>
data_maestro.26

> <s_m_Source_Path>
C:\Users\olshana1\Git\GramNeg-Accumulation\Gram Negative Permeation - OmpF

> <s_m_Source_File>
data_maestro.csv

> <i_m_Source_File_Index>
26

> <s_m_job_name>
glide-dock_Nicaido_neutral

> <s_i_glide_gridfile>
3POX-grid

> <i_i_glide_lignum>
33

> <i_i_glide_rotatable_bonds>
8

> <r_i_docking_score>
-4.5234781466685

> <r_i_glide_ligand_efficiency>
-0.188478256111188

> <r_i_glide_ligand_efficiency_sa>
-0.543665367201367

> <r_i_glide_ligand_efficiency_ln>
-1.08267588938455

> <r_i_glide_gscore>
-4.5234781466685

> <r_i_glide_lipo>
0

> <r_i_glide_hbond>
-0.835690387196149

> <r_i_glide_metal>
0

> <r_i_glide_rewards>
-0.965212120371121

> <r_i_glide_evdw>
-16.1989059448242

> <r_i_glide_ecoul>
-15.4055109024048

> <r_i_glide_erotb>
0.894795809723686

> <r_i_glide_esite>
-0.496599516222988

> <r_i_glide_emodel>
-55.5015756467187

> <r_i_glide_energy>
-31.604416847229

> <r_i_glide_einternal>
6.05767774581909

> <i_i_glide_confnum>
36

> <i_i_glide_posenum>
21

> <r_i_glide_eff_state_penalty>
0

> <r_glide_res:A132_vdw>
-0.0893437447983131

> <r_glide_res:A132_coul>
-42.3185787877046

> <r_glide_res:A132_hbond>
-0.294307583883451

> <r_glide_res:A132_dist>
1.98999443416562

> <r_glide_res:A132_Eint>
-42.7022301163864

> <r_glide_res:A117_vdw>
-1.21593654439354

> <r_glide_res:A117_coul>
11.80338958281

> <r_glide_res:A117_hbond>
0

> <r_glide_res:A117_dist>
3.51830265865213

> <r_glide_res:A117_Eint>
10.5874530384164

> <r_glide_res:A113_vdw>
-0.402293081166396

> <r_glide_res:A113_coul>
-14.8197496131931

> <r_glide_res:A113_hbond>
-0.0247902092099158

> <r_glide_res:A113_dist>
2.36723022980811

> <r_glide_res:A113_Eint>
-15.2468329035694

> <r_glide_res:A82_vdw>
-1.26137924970409

> <r_glide_res:A82_coul>
-43.6722012041356

> <r_glide_res:A82_hbond>
-0.233221147985657

> <r_glide_res:A82_dist>
2.0693538023483

> <r_glide_res:A82_Eint>
-45.1668016018253

> <r_glide_res:A42_vdw>
-0.814251851369124

> <r_glide_res:A42_coul>
-30.5686586927253

> <r_glide_res:A42_hbond>
-0.0830310784008407

> <r_glide_res:A42_dist>
2.11809488159928

> <r_glide_res:A42_Eint>
-31.4659416224952

> <r_glide_res:A16_vdw>
-0.115739236747429

> <r_glide_res:A16_coul>
-14.3360179334362

> <r_glide_res:A16_hbond>
0

> <r_glide_res:A16_dist>
5.92047283550517

> <r_glide_res:A16_Eint>
-14.4517571701836

> <s_m_source_file>
ligprep_Nicaido_neutral.maegz

> <i_m_source_file_index>
26

> <i_lp_mmshare_version>
58128

> <i_f3d_flags>
0

> <s_lp_Force_Field>
S-OPLS

> <r_lp_Energy>
12.253328

> <b_lp_Chiralities_Consistent>
1

> <s_lp_Variant>
Penicillin N-1

> <s_epik_input>
W09IXUMoPU8pW0NASF0xQyhbQ0gzXSkoW0NIM10pU1tDQEBIXShOMTIpW0NAQEhdKEMyPU8pW05IXUMoPU8pW0NIMl1bQ0gyXVtDSDJdW0NASF0oW05IMl0pQyg9TylbT0hd

> <s_epik_cmdline>
J2VwaWtfcHl0aG9uJywgJy1waHQnLCAnMC4wJywgJy1waCcsICc3LjQnLCAnLW50JywgJy1tYScsICc1MDAnLCAnLWltYWUnLCAnPGluZmlsZS5tYWU+JywgJy1vbWFlJywgJzxvdXRmaWxlLm1hZT4n

> <r_lp_tautomer_probability>
1

> <r_epik_Ionization_Penalty>
  0.0034

> <r_epik_Ionization_Penalty_Charging>
  0.0034

> <r_epik_Ionization_Penalty_Neutral>
  0.0000

> <r_epik_State_Penalty>
  0.0000

> <r_epik_Charging_Adjusted_Penalty>
0.0034368723547391

> <i_epik_Tot_Q>
-1

> <i_epik_Tot_abs_Q>
3

> <s_epik_Chemistry_Notes>
This compound contains an acetal/aminal-like group ( X-CH(R)-Y where X, Y are N, S, or O) that may be acid/base labile, releasing an aldehyde.

> <s_m_subgroup_title>
glide-dock_Nicaido_neutral_pv1

> <s_m_subgroupid>
glide-dock_Nicaido_neutral_pv1

> <b_m_subgroup_collapsed>
0

$$$$
LY097964
                    3D
 Schrodinger Suite 2022-2.
 40 42  0  0  1  0            999 V2000
  -32.8169  -24.4118  -22.6972 C   0  0  0  0  0  0
  -32.1462  -23.1891  -22.9426 O   0  0  0  0  0  0
  -30.7702  -23.4190  -22.8125 N   0  0  0  0  0  0
  -30.0943  -22.3523  -22.6297 C   0  0  0  0  0  0
  -30.6535  -20.9724  -22.5128 C   0  0  0  0  0  0
  -31.6468  -20.6591  -21.6134 C   0  0  0  0  0  0
  -32.1104  -18.9800  -21.6947 S   0  0  0  0  0  0
  -30.9375  -18.7665  -22.9825 C   0  0  0  0  0  0
  -30.7684  -17.5499  -23.6137 N   0  0  0  0  0  0
  -30.2606  -19.8736  -23.2908 N   0  0  0  0  0  0
  -28.5891  -22.4572  -22.5330 C   0  0  0  0  0  0
  -28.0287  -21.6236  -21.6328 N   0  0  0  0  0  0
  -26.6059  -21.5430  -21.2706 C   0  0  1  0  0  0
  -26.4200  -21.2131  -19.7746 C   0  0  1  0  0  0
  -25.6180  -22.4175  -19.6597 N   0  0  0  0  0  0
  -25.9199  -22.8920  -20.9247 C   0  0  0  0  0  0
  -25.7107  -23.9495  -21.4809 O   0  0  0  0  0  0
  -25.0314  -22.8244  -18.4390 C   0  0  0  0  0  0
  -24.7098  -24.3692  -18.3190 C   0  0  0  0  0  0
  -25.5540  -25.1498  -18.8129 O   0  5  0  0  0  0
  -23.6329  -24.7062  -17.7730 O   0  0  0  0  0  0
  -24.8409  -21.9370  -17.4200 C   0  0  0  0  0  0
  -25.1043  -20.4335  -17.5350 C   0  0  0  0  0  0
  -25.3880  -19.8326  -19.2212 S   0  0  0  0  0  0
  -24.3639  -22.3092  -16.0213 C   0  0  0  0  0  0
  -27.9690  -23.2825  -23.2126 O   0  0  0  0  0  0
  -33.8925  -24.2609  -22.7880 H   0  0  0  0  0  0
  -32.5241  -25.1795  -23.4144 H   0  0  0  0  0  0
  -32.6168  -24.7768  -21.6882 H   0  0  0  0  0  0
  -32.1234  -21.3083  -20.8922 H   0  0  0  0  0  0
  -29.9150  -17.3917  -24.1289 H   0  0  0  0  0  0
  -31.1486  -16.7172  -23.1627 H   0  0  0  0  0  0
  -28.6439  -20.9964  -21.1296 H   0  0  0  0  0  0
  -26.0245  -20.8859  -21.9186 H   0  0  0  0  0  0
  -27.3341  -21.2922  -19.1803 H   0  0  0  0  0  0
  -25.9690  -20.1815  -16.9239 H   0  0  0  0  0  0
  -24.2589  -19.8820  -17.1233 H   0  0  0  0  0  0
  -25.0245  -21.8668  -15.2758 H   0  0  0  0  0  0
  -24.3691  -23.3773  -15.8283 H   0  0  0  0  0  0
  -23.3564  -21.9313  -15.8476 H   0  0  0  0  0  0
  1  2  1  0  0  0
  1 27  1  0  0  0
  1 28  1  0  0  0
  1 29  1  0  0  0
  2  3  1  0  0  0
  3  4  2  3  0  0
  4  5  1  0  0  0
  4 11  1  0  0  0
  5 10  1  0  0  0
  5  6  2  0  0  0
  6  7  1  0  0  0
  6 30  1  0  0  0
  7  8  1  0  0  0
  8  9  1  0  0  0
  8 10  2  0  0  0
  9 31  1  0  0  0
  9 32  1  0  0  0
 11 12  1  0  0  0
 11 26  2  0  0  0
 12 13  1  0  0  0
 12 33  1  0  0  0
 13 16  1  0  0  0
 13 14  1  0  0  0
 13 34  1  0  0  0
 14 24  1  0  0  0
 14 15  1  0  0  0
 14 35  1  0  0  0
 15 16  1  0  0  0
 15 18  1  0  0  0
 16 17  2  0  0  0
 18 19  1  0  0  0
 18 22  2  0  0  0
 19 20  1  0  0  0
 19 21  2  0  0  0
 22 23  1  0  0  0
 22 25  1  0  0  0
 23 24  1  0  0  0
 23 36  1  0  0  0
 23 37  1  0  0  0
 25 38  1  0  0  0
 25 39  1  0  0  0
 25 40  1  0  0  0
M  CHG  1  20  -1
M  END
> <s_m_entry_id>
27593

> <s_m_entry_name>
data_maestro.7

> <s_m_Source_Path>
C:\Users\olshana1\Git\GramNeg-Accumulation\Gram Negative Permeation - OmpF

> <s_m_Source_File>
data_maestro.csv

> <i_m_Source_File_Index>
7

> <s_m_job_name>
glide-dock_Nicaido_neutral

> <s_i_glide_gridfile>
3POX-grid

> <i_i_glide_lignum>
9

> <i_i_glide_rotatable_bonds>
6

> <r_i_docking_score>
-4.51871970944025

> <r_i_glide_ligand_efficiency>
-0.173796911901548

> <r_i_glide_ligand_efficiency_sa>
-0.51487266765051

> <r_i_glide_ligand_efficiency_ln>
-1.06120649663332

> <r_i_glide_gscore>
-4.51871970944025

> <r_i_glide_lipo>
0

> <r_i_glide_hbond>
-0.714006279029872

> <r_i_glide_metal>
0

> <r_i_glide_rewards>
-0.673903594080272

> <r_i_glide_evdw>
-27.8542709350586

> <r_i_glide_ecoul>
-11.8740873336792

> <r_i_glide_erotb>
0.622478626066327

> <r_i_glide_esite>
-0.579461815591624

> <r_i_glide_emodel>
-59.7066089853588

> <r_i_glide_energy>
-39.7283582687378

> <r_i_glide_einternal>
5.25633907318115

> <i_i_glide_confnum>
32

> <i_i_glide_posenum>
243

> <r_i_glide_eff_state_penalty>
0

> <r_glide_res:A132_vdw>
-0.425769010998343

> <r_glide_res:A132_coul>
-45.6717471374268

> <r_glide_res:A132_hbond>
-0.20843132403894

> <r_glide_res:A132_dist>
1.87871507031312

> <r_glide_res:A132_Eint>
-46.3059474724641

> <r_glide_res:A117_vdw>
-2.31664012936911

> <r_glide_res:A117_coul>
15.3107758121827

> <r_glide_res:A117_hbond>
0

> <r_glide_res:A117_dist>
2.22152679517319

> <r_glide_res:A117_Eint>
12.9941356828136

> <r_glide_res:A113_vdw>
-3.93756758140052

> <r_glide_res:A113_coul>
12.4289599617626

> <r_glide_res:A113_hbond>
0

> <r_glide_res:A113_dist>
2.92732438991178

> <r_glide_res:A113_Eint>
8.49139238036211

> <r_glide_res:A82_vdw>
-1.97546870072665

> <r_glide_res:A82_coul>
-33.6673604472465

> <r_glide_res:A82_hbond>
-0.123993117838292

> <r_glide_res:A82_dist>
2.17023993371477

> <r_glide_res:A82_Eint>
-35.7668222658114

> <r_glide_res:A42_vdw>
-0.946363802577581

> <r_glide_res:A42_coul>
-23.8680593236136

> <r_glide_res:A42_hbond>
0

> <r_glide_res:A42_dist>
3.15828877835401

> <r_glide_res:A42_Eint>
-24.8144231261912

> <r_glide_res:A16_vdw>
-0.239889078524469

> <r_glide_res:A16_coul>
-16.462776503461

> <r_glide_res:A16_hbond>
0

> <r_glide_res:A16_dist>
4.99744155326811

> <r_glide_res:A16_Eint>
-16.7026655819855

> <s_m_source_file>
ligprep_Nicaido_neutral.maegz

> <i_m_source_file_index>
7

> <i_lp_mmshare_version>
58128

> <i_f3d_flags>
0

> <s_lp_Force_Field>
S-OPLS

> <r_lp_Energy>
53.750759

> <b_lp_Chiralities_Consistent>
1

> <s_lp_Variant>
LY097964-1

> <s_epik_input>
W05IMl1jKG4xKXNbY0hdYzEvQyg9TlxPW0NIM10pQyg9TylbTkhdW0NAQEhdMkMoPU8pTihbQ0BIXTIzKUMoQyg9TylbT0hdKT1DKFtDSDJdUzMpW0NIM10=

> <s_epik_cmdline>
J2VwaWtfcHl0aG9uJywgJy1waHQnLCAnMC4wJywgJy1waCcsICc3LjQnLCAnLW50JywgJy1tYScsICc1MDAnLCAnLWltYWUnLCAnPGluZmlsZS5tYWU+JywgJy1vbWFlJywgJzxvdXRmaWxlLm1hZT4n

> <r_lp_tautomer_probability>
1

> <r_epik_Ionization_Penalty>
  0.0005

> <r_epik_Ionization_Penalty_Charging>
  0.0000

> <r_epik_Ionization_Penalty_Neutral>
  0.0005

> <r_epik_State_Penalty>
  0.0000

> <r_epik_Charging_Adjusted_Penalty>
1.64985111359435e-05

> <i_epik_Tot_Q>
-1

> <i_epik_Tot_abs_Q>
1

> <s_epik_Chemistry_Notes>
This compound has an imine and may undergo hydrolysis. This compound contains an acetal/aminal-like group ( X-CH(R)-Y where X, Y are N, S, or O) that may be acid/base labile, releasing an aldehyde.

> <s_m_subgroup_title>
glide-dock_Nicaido_neutral_pv1

> <s_m_subgroupid>
glide-dock_Nicaido_neutral_pv1

> <b_m_subgroup_collapsed>
0

$$$$
Nocardicin B
                    3D
 Schrodinger Suite 2022-2.
 59 61  0  0  1  0            999 V2000
  -28.6935  -22.3496  -25.1612 O   0  0  0  0  0  0
  -29.3824  -21.9574  -24.2411 C   0  0  0  0  0  0
  -30.8458  -21.5270  -24.0963 C   0  0  2  0  0  0
  -30.5445  -21.4401  -22.5993 C   0  0  0  0  0  0
  -29.1391  -21.7465  -22.8985 N   0  0  0  0  0  0
  -27.9915  -21.8781  -21.9909 C   0  0  2  0  0  0
  -26.9575  -20.8204  -22.2266 C   0  0  0  0  0  0
  -26.4813  -20.4739  -23.5159 C   0  0  0  0  0  0
  -25.5438  -19.4500  -23.7068 C   0  0  0  0  0  0
  -25.0432  -18.7496  -22.6012 C   0  0  0  0  0  0
  -25.4544  -19.0990  -21.3033 C   0  0  0  0  0  0
  -26.4087  -20.1190  -21.1259 C   0  0  0  0  0  0
  -24.2130  -17.6935  -22.8134 O   0  0  0  0  0  0
  -27.2541  -23.2222  -22.1061 C   0  0  0  0  0  0
  -27.2117  -23.9496  -21.0889 O   0  5  0  0  0  0
  -26.7690  -23.5496  -23.2134 O   0  0  0  0  0  0
  -31.7916  -22.5910  -24.4216 N   0  0  0  0  0  0
  -31.9689  -23.1167  -25.6434 C   0  0  0  0  0  0
  -33.0421  -24.1983  -25.7261 C   0  0  0  0  0  0
  -33.6652  -24.2437  -27.0723 C   0  0  0  0  0  0
  -33.5971  -25.4203  -27.8480 C   0  0  0  0  0  0
  -34.1745  -25.4661  -29.1309 C   0  0  0  0  0  0
  -34.8514  -24.3372  -29.6612 C   0  0  0  0  0  0
  -34.9109  -23.1631  -28.8871 C   0  0  0  0  0  0
  -34.3305  -23.1152  -27.6056 C   0  0  0  0  0  0
  -35.4815  -24.3034  -30.8895 O   0  0  0  0  0  0
  -35.5722  -25.5030  -31.6460 C   0  0  0  0  0  0
  -36.6158  -26.4709  -31.0400 C   0  0  0  0  0  0
  -38.0753  -26.1095  -31.4024 C   0  0  2  0  0  0
  -39.1140  -26.8920  -30.5861 C   0  0  0  0  0  0
  -40.2782  -26.4401  -30.5976 O   0  5  0  0  0  0
  -38.7689  -27.9496  -30.0134 O   0  0  0  0  0  0
  -38.3689  -26.3978  -32.8134 N   0  3  0  0  0  0
  -33.4250  -25.0367  -24.8351 N   0  0  0  0  0  0
  -32.6552  -24.9670  -23.6300 O   0  0  0  0  0  0
  -31.3428  -22.7496  -26.6418 O   0  0  0  0  0  0
  -31.0865  -20.5587  -24.5370 H   0  0  0  0  0  0
  -30.6969  -20.4436  -22.1803 H   0  0  0  0  0  0
  -31.0364  -22.1983  -21.9864 H   0  0  0  0  0  0
  -28.3854  -21.7959  -20.9760 H   0  0  0  0  0  0
  -26.8317  -20.9905  -24.3908 H   0  0  0  0  0  0
  -25.2314  -19.1828  -24.7066 H   0  0  0  0  0  0
  -25.0779  -18.5552  -20.4496 H   0  0  0  0  0  0
  -26.7395  -20.3508  -20.1236 H   0  0  0  0  0  0
  -24.3152  -17.3842  -23.7168 H   0  0  0  0  0  0
  -32.3285  -22.9970  -23.6657 H   0  0  0  0  0  0
  -33.1005  -26.2997  -27.4607 H   0  0  0  0  0  0
  -34.0987  -26.3936  -29.6768 H   0  0  0  0  0  0
  -35.4228  -22.2951  -29.2784 H   0  0  0  0  0  0
  -34.4047  -22.2035  -27.0300 H   0  0  0  0  0  0
  -34.5846  -25.9496  -31.7422 H   0  0  0  0  0  0
  -35.8525  -25.2388  -32.6659 H   0  0  0  0  0  0
  -36.5113  -26.4871  -29.9553 H   0  0  0  0  0  0
  -36.4043  -27.4931  -31.3448 H   0  0  0  0  0  0
  -38.2312  -25.0440  -31.2253 H   0  0  0  0  0  0
  -39.3029  -26.0722  -33.0174 H   0  0  0  0  0  0
  -37.7028  -25.9496  -33.4304 H   0  0  0  0  0  0
  -33.1689  -25.4996  -23.0383 H   0  0  0  0  0  0
  -38.3349  -27.3979  -32.9448 H   0  0  0  0  0  0
  1  2  2  0  0  0
  2  5  1  0  0  0
  2  3  1  0  0  0
  3  4  1  0  0  0
  3 17  1  0  0  0
  3 37  1  0  0  0
  4  5  1  0  0  0
  4 38  1  0  0  0
  4 39  1  0  0  0
  5  6  1  0  0  0
  6  7  1  0  0  0
  6 14  1  0  0  0
  6 40  1  0  0  0
  7 12  1  0  0  0
  7  8  2  0  0  0
  8  9  1  0  0  0
  8 41  1  0  0  0
  9 10  2  0  0  0
  9 42  1  0  0  0
 10 11  1  0  0  0
 10 13  1  0  0  0
 11 12  2  0  0  0
 11 43  1  0  0  0
 12 44  1  0  0  0
 13 45  1  0  0  0
 14 15  1  0  0  0
 14 16  2  0  0  0
 17 18  1  0  0  0
 17 46  1  0  0  0
 18 19  1  0  0  0
 18 36  2  0  0  0
 19 20  1  0  0  0
 19 34  2  3  0  0
 20 25  1  0  0  0
 20 21  2  0  0  0
 21 22  1  0  0  0
 21 47  1  0  0  0
 22 23  2  0  0  0
 22 48  1  0  0  0
 23 24  1  0  0  0
 23 26  1  0  0  0
 24 25  2  0  0  0
 24 49  1  0  0  0
 25 50  1  0  0  0
 26 27  1  0  0  0
 27 28  1  0  0  0
 27 51  1  0  0  0
 27 52  1  0  0  0
 28 29  1  0  0  0
 28 53  1  0  0  0
 28 54  1  0  0  0
 29 30  1  0  0  0
 29 33  1  0  0  0
 29 55  1  0  0  0
 30 31  1  0  0  0
 30 32  2  0  0  0
 33 56  1  0  0  0
 33 57  1  0  0  0
 33 59  1  0  0  0
 34 35  1  0  0  0
 35 58  1  0  0  0
M  CHG  3  15  -1  31  -1  33   1
M  END
> <s_m_entry_id>
27594

> <s_m_entry_name>
data_maestro.29

> <s_m_Source_Path>
C:\Users\olshana1\Git\GramNeg-Accumulation\Gram Negative Permeation - OmpF

> <s_m_Source_File>
data_maestro.csv

> <i_m_Source_File_Index>
29

> <s_m_job_name>
glide-dock_Nicaido_neutral

> <s_i_glide_gridfile>
3POX-grid

> <i_i_glide_lignum>
37

> <i_i_glide_rotatable_bonds>
14

> <r_i_docking_score>
-4.51499649221389

> <r_i_glide_ligand_efficiency>
-0.125416569228164

> <r_i_glide_ligand_efficiency_sa>
-0.414116386902688

> <r_i_glide_ligand_efficiency_ln>
-0.985050253492506

> <r_i_glide_gscore>
-4.51499649221389

> <r_i_glide_lipo>
-0.0464860277830693

> <r_i_glide_hbond>
-1.25146649009934

> <r_i_glide_metal>
0

> <r_i_glide_rewards>
-0.00346444950153035

> <r_i_glide_evdw>
-24.7976303100586

> <r_i_glide_ecoul>
-15.9468584060669

> <r_i_glide_erotb>
0.900147327125679

> <r_i_glide_esite>
-0.481816575542672

> <r_i_glide_emodel>
-61.5260465706172

> <r_i_glide_energy>
-40.7444887161255

> <r_i_glide_einternal>
12.7065181732178

> <i_i_glide_confnum>
285

> <i_i_glide_posenum>
51

> <r_i_glide_eff_state_penalty>
0

> <r_glide_res:A132_vdw>
-0.861449393351068

> <r_glide_res:A132_coul>
-46.4678625495711

> <r_glide_res:A132_hbond>
-0.280365481189476

> <r_glide_res:A132_dist>
2.10839932520727

> <r_glide_res:A132_Eint>
-47.6096774241116

> <r_glide_res:A117_vdw>
-1.75294469433217

> <r_glide_res:A117_coul>
14.3371579060668

> <r_glide_res:A117_hbond>
-0.16

> <r_glide_res:A117_dist>
1.7707857431385

> <r_glide_res:A117_Eint>
12.4242132117346

> <r_glide_res:A113_vdw>
-1.2862094053898

> <r_glide_res:A113_coul>
21.6848304463997

> <r_glide_res:A113_hbond>
0

> <r_glide_res:A113_dist>
3.57344747406029

> <r_glide_res:A113_Eint>
20.3986210410099

> <r_glide_res:A82_vdw>
-0.757296411291126

> <r_glide_res:A82_coul>
-48.0288852614075

> <r_glide_res:A82_hbond>
-0.185133884433422

> <r_glide_res:A82_dist>
1.81525782093942

> <r_glide_res:A82_Eint>
-48.971315557132

> <r_glide_res:A42_vdw>
-2.2377336506273

> <r_glide_res:A42_coul>
-43.0274451635402

> <r_glide_res:A42_hbond>
-0.261386762319325

> <r_glide_res:A42_dist>
1.98854784624444

> <r_glide_res:A42_Eint>
-45.5265655764868

> <r_glide_res:A16_vdw>
-2.50595023479814

> <r_glide_res:A16_coul>
-28.4504011149244

> <r_glide_res:A16_hbond>
-0.00996222791301514

> <r_glide_res:A16_dist>
2.41050176932838

> <r_glide_res:A16_Eint>
-30.9663135776355

> <s_m_source_file>
ligprep_Nicaido_neutral.maegz

> <i_m_source_file_index>
29

> <i_lp_mmshare_version>
58128

> <i_f3d_flags>
0

> <s_lp_Force_Field>
S-OPLS

> <r_lp_Energy>
65.715273

> <b_lp_Chiralities_Consistent>
1

> <s_lp_Variant>
Nocardicin B-2

> <s_epik_input>
W2NIXTFbY0hdYyhbT0hdKVtjSF1bY0hdYzFbQ0BIXShDKD1PKVtPSF0pTjJbQ0gyXVtDQEBIXShDMj1PKVtOSF1DKD1PKS9DKD1OL1tPSF0pYzNbY0hdW2NIXWMoW2NIXVtjSF0zKU9bQ0gyXVtDSDJdW0NAQEhdKFtOSDJdKUMoPU8pW09IXQ==

> <s_epik_cmdline>
J2VwaWtfcHl0aG9uJywgJy1waHQnLCAnMC4wJywgJy1waCcsICc3LjQnLCAnLW50JywgJy1tYScsICc1MDAnLCAnLWltYWUnLCAnPGluZmlsZS5tYWU+JywgJy1vbWFlJywgJzxvdXRmaWxlLm1hZT4n

> <r_lp_tautomer_probability>
1

> <r_epik_Ionization_Penalty>
  0.0116

> <r_epik_Ionization_Penalty_Charging>
  0.0086

> <r_epik_Ionization_Penalty_Neutral>
  0.0030

> <r_epik_State_Penalty>
  0.0000

> <r_epik_Charging_Adjusted_Penalty>
0.0085560600321308

> <i_epik_Tot_Q>
-1

> <i_epik_Tot_abs_Q>
3

> <s_epik_Chemistry_Notes>
This compound has an imine and may undergo hydrolysis.

> <s_m_subgroup_title>
glide-dock_Nicaido_neutral_pv1

> <s_m_subgroupid>
glide-dock_Nicaido_neutral_pv1

> <b_m_subgroup_collapsed>
0

$$$$
Cephalosporin C
                    3D
 Schrodinger Suite 2022-2.
 45 46  0  0  1  0            999 V2000
  -21.4026  -21.5795  -26.0174 O   0  0  0  0  0  0
  -22.0685  -20.6260  -26.4250 C   0  0  0  0  0  0
  -23.4117  -20.5389  -26.4135 O   0  0  0  0  0  0
  -24.2021  -21.6159  -25.9230 C   0  0  0  0  0  0
  -24.2083  -21.6857  -24.3950 C   0  0  0  0  0  0
  -23.8866  -22.8045  -23.6858 C   0  0  0  0  0  0
  -23.7324  -22.7709  -22.2845 N   0  0  0  0  0  0
  -23.5475  -21.5334  -21.5542 C   0  0  2  0  0  0
  -23.4659  -22.3641  -20.2599 C   0  0  2  0  0  0
  -23.5962  -23.6049  -21.1843 C   0  0  0  0  0  0
  -23.5839  -24.8115  -21.0632 O   0  0  0  0  0  0
  -24.6094  -22.1151  -19.3881 N   0  0  0  0  0  0
  -24.9710  -22.8606  -18.3361 C   0  0  0  0  0  0
  -26.2193  -22.3990  -17.5820 C   0  0  0  0  0  0
  -27.5109  -22.9314  -18.2317 C   0  0  0  0  0  0
  -28.0297  -22.0103  -19.3556 C   0  0  0  0  0  0
  -29.1420  -22.6274  -20.2399 C   0  0  2  0  0  0
  -28.6207  -23.5485  -21.3748 C   0  0  0  0  0  0
  -29.4351  -23.9071  -22.2576 O   0  5  0  0  0  0
  -27.4350  -23.9494  -21.3439 O   0  0  0  0  0  0
  -29.9679  -21.5502  -20.8140 N   0  3  0  0  0  0
  -24.3569  -23.8663  -17.9737 O   0  0  0  0  0  0
  -24.9283  -20.4340  -21.9816 S   0  0  0  0  0  0
  -24.5535  -20.3385  -23.7520 C   0  0  0  0  0  0
  -23.5598  -24.1851  -24.3636 C   0  0  0  0  0  0
  -24.3690  -24.6215  -25.2123 O   0  5  0  0  0  0
  -22.5070  -24.7494  -23.9938 O   0  0  0  0  0  0
  -21.6513  -19.7116  -26.8513 H   0  0  0  0  0  0
  -23.8672  -22.5434  -26.3897 H   0  0  0  0  0  0
  -25.2252  -21.4484  -26.2585 H   0  0  0  0  0  0
  -22.5919  -21.0718  -21.8107 H   0  0  0  0  0  0
  -22.5017  -22.2624  -19.7618 H   0  0  0  0  0  0
  -25.1868  -21.3194  -19.6291 H   0  0  0  0  0  0
  -26.2420  -21.3096  -17.5116 H   0  0  0  0  0  0
  -26.1475  -22.7529  -16.5535 H   0  0  0  0  0  0
  -28.2855  -23.0241  -17.4690 H   0  0  0  0  0  0
  -27.3475  -23.9439  -18.6029 H   0  0  0  0  0  0
  -27.2091  -21.6726  -19.9882 H   0  0  0  0  0  0
  -28.4083  -21.1021  -18.8807 H   0  0  0  0  0  0
  -29.8066  -23.2221  -19.6124 H   0  0  0  0  0  0
  -30.7051  -21.9652  -21.3656 H   0  0  0  0  0  0
  -30.3687  -20.9987  -20.0582 H   0  0  0  0  0  0
  -23.7163  -19.6547  -23.8967 H   0  0  0  0  0  0
  -25.4119  -19.8948  -24.2589 H   0  0  0  0  0  0
  -29.3950  -20.9590  -21.3979 H   0  0  0  0  0  0
  1  2  2  0  0  0
  2  3  1  0  0  0
  2 28  1  0  0  0
  3  4  1  0  0  0
  4  5  1  0  0  0
  4 29  1  0  0  0
  4 30  1  0  0  0
  5 24  1  0  0  0
  5  6  2  0  0  0
  6  7  1  0  0  0
  6 25  1  0  0  0
  7 10  1  0  0  0
  7  8  1  0  0  0
  8  9  1  0  0  0
  8 23  1  0  0  0
  8 31  1  0  0  0
  9 10  1  0  0  0
  9 12  1  0  0  0
  9 32  1  0  0  0
 10 11  2  0  0  0
 12 13  1  0  0  0
 12 33  1  0  0  0
 13 14  1  0  0  0
 13 22  2  0  0  0
 14 15  1  0  0  0
 14 34  1  0  0  0
 14 35  1  0  0  0
 15 16  1  0  0  0
 15 36  1  0  0  0
 15 37  1  0  0  0
 16 17  1  0  0  0
 16 38  1  0  0  0
 16 39  1  0  0  0
 17 18  1  0  0  0
 17 21  1  0  0  0
 17 40  1  0  0  0
 18 19  1  0  0  0
 18 20  2  0  0  0
 21 41  1  0  0  0
 21 42  1  0  0  0
 21 45  1  0  0  0
 23 24  1  0  0  0
 24 43  1  0  0  0
 24 44  1  0  0  0
 25 26  1  0  0  0
 25 27  2  0  0  0
M  CHG  3  19  -1  21   1  26  -1
M  END
> <s_m_entry_id>
27595

> <s_m_entry_name>
data_maestro.25

> <s_m_Source_Path>
C:\Users\olshana1\Git\GramNeg-Accumulation\Gram Negative Permeation - OmpF

> <s_m_Source_File>
data_maestro.csv

> <i_m_Source_File_Index>
25

> <s_m_job_name>
glide-dock_Nicaido_neutral

> <s_i_glide_gridfile>
3POX-grid

> <i_i_glide_lignum>
32

> <i_i_glide_rotatable_bonds>
11

> <r_i_docking_score>
-4.511770451661

> <r_i_glide_ligand_efficiency>
-0.167102609320778

> <r_i_glide_ligand_efficiency_sa>
-0.501307827411591

> <r_i_glide_ligand_efficiency_ln>
-1.05026577879749

> <r_i_glide_gscore>
-4.511770451661

> <r_i_glide_lipo>
0

> <r_i_glide_hbond>
-0.811646665574006

> <r_i_glide_metal>
0

> <r_i_glide_rewards>
-0.846147985359416

> <r_i_glide_evdw>
-22.4492816925049

> <r_i_glide_ecoul>
-15.362401008606

> <r_i_glide_erotb>
0.97830559423054

> <r_i_glide_esite>
-0.40545715904198

> <r_i_glide_emodel>
-64.7094640709172

> <r_i_glide_energy>
-37.8116827011108

> <r_i_glide_einternal>
5.13256311416626

> <i_i_glide_confnum>
314

> <i_i_glide_posenum>
287

> <r_i_glide_eff_state_penalty>
0

> <r_glide_res:A132_vdw>
-0.748586589423391

> <r_glide_res:A132_coul>
-51.9515774067637

> <r_glide_res:A132_hbond>
-0.198181126191339

> <r_glide_res:A132_dist>
2.09922171776412

> <r_glide_res:A132_Eint>
-52.8983451223784

> <r_glide_res:A117_vdw>
-1.77264910727161

> <r_glide_res:A117_coul>
14.9940945198474

> <r_glide_res:A117_hbond>
0

> <r_glide_res:A117_dist>
3.32279670626049

> <r_glide_res:A117_Eint>
13.2214454125758

> <r_glide_res:A113_vdw>
-0.713051991438186

> <r_glide_res:A113_coul>
-14.8960999521732

> <r_glide_res:A113_hbond>
-0.236961673839842

> <r_glide_res:A113_dist>
1.86729739272624

> <r_glide_res:A113_Eint>
-15.8461136174512

> <r_glide_res:A82_vdw>
-2.47541471848503

> <r_glide_res:A82_coul>
-56.857758831026

> <r_glide_res:A82_hbond>
-0.167228608686044

> <r_glide_res:A82_dist>
2.18023665675174

> <r_glide_res:A82_Eint>
-59.5004021581971

> <r_glide_res:A42_vdw>
-0.766336068906675

> <r_glide_res:A42_coul>
-38.1180011562796

> <r_glide_res:A42_hbond>
-0.00927525685678206

> <r_glide_res:A42_dist>
2.109916551109

> <r_glide_res:A42_Eint>
-38.8936124820431

> <r_glide_res:A16_vdw>
-0.13077729315969

> <r_glide_res:A16_coul>
-16.8368020912812

> <r_glide_res:A16_hbond>
0

> <r_glide_res:A16_dist>
5.40608999934534

> <r_glide_res:A16_Eint>
-16.9675793844408

> <s_m_source_file>
ligprep_Nicaido_neutral.maegz

> <i_m_source_file_index>
25

> <i_lp_mmshare_version>
58128

> <i_f3d_flags>
0

> <s_lp_Force_Field>
S-OPLS

> <r_lp_Energy>
27.061927

> <b_lp_Chiralities_Consistent>
1

> <s_lp_Variant>
Cephalosporin C-1

> <s_epik_input>
Tz1bQ0hdT1tDSDJdQyg9QzFDKD1PKVtPSF0pW0NIMl1TW0NASF0oTjEyKVtDQEhdKEMyPU8pW05IXUMoPU8pW0NIMl1bQ0gyXVtDSDJdW0NAQEhdKFtOSDJdKUMoPU8pW09IXQ==

> <s_epik_cmdline>
J2VwaWtfcHl0aG9uJywgJy1waHQnLCAnMC4wJywgJy1waCcsICc3LjQnLCAnLW50JywgJy1tYScsICc1MDAnLCAnLWltYWUnLCAnPGluZmlsZS5tYWU+JywgJy1vbWFlJywgJzxvdXRmaWxlLm1hZT4n

> <r_lp_tautomer_probability>
1

> <r_epik_Ionization_Penalty>
  0.0034

> <r_epik_Ionization_Penalty_Charging>
  0.0034

> <r_epik_Ionization_Penalty_Neutral>
  0.0000

> <r_epik_State_Penalty>
  0.0000

> <r_epik_Charging_Adjusted_Penalty>
0.00339038450865705

> <i_epik_Tot_Q>
-1

> <i_epik_Tot_abs_Q>
3

> <s_epik_Chemistry_Notes>
This compound has an ester and may undergo hydrolysis at high or low pH. This compound contains an acetal/aminal-like group ( X-CH(R)-Y where X, Y are N, S, or O) that may be acid/base labile, releasing an aldehyde.

> <s_m_subgroup_title>
glide-dock_Nicaido_neutral_pv1

> <s_m_subgroupid>
glide-dock_Nicaido_neutral_pv1

> <b_m_subgroup_collapsed>
0

$$$$
Nocardicin B
                    3D
 Schrodinger Suite 2022-2.
 59 61  0  0  1  0            999 V2000
  -21.2857  -24.7046  -17.6427 O   0  0  0  0  0  0
  -22.3342  -24.7495  -18.2495 C   0  0  0  0  0  0
  -23.7666  -24.2152  -18.0557 C   0  0  2  0  0  0
  -24.0800  -24.9442  -19.3580 C   0  0  0  0  0  0
  -22.6835  -25.4000  -19.4132 N   0  0  0  0  0  0
  -21.9764  -26.3207  -20.3155 C   0  0  2  0  0  0
  -20.6210  -25.8206  -20.7284 C   0  0  0  0  0  0
  -19.5753  -26.7484  -20.9513 C   0  0  0  0  0  0
  -18.2918  -26.3323  -21.3518 C   0  0  0  0  0  0
  -18.0230  -24.9655  -21.5378 C   0  0  0  0  0  0
  -19.0436  -24.0213  -21.3267 C   0  0  0  0  0  0
  -20.3252  -24.4487  -20.9296 C   0  0  0  0  0  0
  -16.7779  -24.5660  -21.9245 O   0  0  0  0  0  0
  -22.7691  -26.5822  -21.6136 C   0  0  0  0  0  0
  -23.5685  -27.5497  -21.6133 O   0  5  0  0  0  0
  -22.6306  -25.8112  -22.5921 O   0  0  0  0  0  0
  -23.9635  -22.7795  -18.2180 N   0  0  0  0  0  0
  -23.6059  -21.8408  -17.3279 C   0  0  0  0  0  0
  -24.1834  -20.4585  -17.6131 C   0  0  0  0  0  0
  -25.4140  -20.4230  -18.4686 C   0  0  0  0  0  0
  -25.4608  -19.6330  -19.6406 C   0  0  0  0  0  0
  -26.6400  -19.5426  -20.4065 C   0  0  0  0  0  0
  -27.7987  -20.2584  -20.0201 C   0  0  0  0  0  0
  -27.7450  -21.0660  -18.8694 C   0  0  0  0  0  0
  -26.5701  -21.1486  -18.1020 C   0  0  0  0  0  0
  -29.0055  -20.2255  -20.6824 O   0  0  0  0  0  0
  -29.1469  -19.5010  -21.8899 C   0  0  0  0  0  0
  -28.5658  -20.3706  -23.0069 C   0  0  0  0  0  0
  -28.8233  -19.8496  -24.4360 C   0  0  2  0  0  0
  -28.7803  -21.0201  -25.4386 C   0  0  0  0  0  0
  -29.5689  -20.9916  -26.4125 O   0  5  0  0  0  0
  -27.9691  -21.9493  -25.2134 O   0  0  0  0  0  0
  -27.8224  -18.8292  -24.8144 N   0  3  0  0  0  0
  -23.6124  -19.4270  -17.1276 N   0  0  0  0  0  0
  -24.3689  -18.2341  -17.3912 O   0  0  0  0  0  0
  -22.8909  -22.0714  -16.3518 O   0  0  0  0  0  0
  -24.3023  -24.6375  -17.2041 H   0  0  0  0  0  0
  -24.8019  -25.7463  -19.2132 H   0  0  0  0  0  0
  -24.3642  -24.2977  -20.1908 H   0  0  0  0  0  0
  -21.8654  -27.2722  -19.8013 H   0  0  0  0  0  0
  -19.7630  -27.8047  -20.8224 H   0  0  0  0  0  0
  -17.5137  -27.0626  -21.5211 H   0  0  0  0  0  0
  -18.8551  -22.9672  -21.4703 H   0  0  0  0  0  0
  -21.0975  -23.7069  -20.7868 H   0  0  0  0  0  0
  -16.6953  -23.6293  -22.0225 H   0  0  0  0  0  0
  -24.5350  -22.4804  -18.9948 H   0  0  0  0  0  0
  -24.5933  -19.0637  -19.9439 H   0  0  0  0  0  0
  -26.6355  -18.9037  -21.2759 H   0  0  0  0  0  0
  -28.6320  -21.6014  -18.5587 H   0  0  0  0  0  0
  -26.5753  -21.7602  -17.2132 H   0  0  0  0  0  0
  -28.7261  -18.4985  -21.8364 H   0  0  0  0  0  0
  -30.2159  -19.3641  -22.0548 H   0  0  0  0  0  0
  -29.0294  -21.3521  -22.8879 H   0  0  0  0  0  0
  -27.4984  -20.5317  -22.8541 H   0  0  0  0  0  0
  -29.8136  -19.3931  -24.4821 H   0  0  0  0  0  0
  -28.0491  -18.4404  -25.7183 H   0  0  0  0  0  0
  -27.8048  -18.0854  -24.1283 H   0  0  0  0  0  0
  -25.2496  -18.5595  -17.5287 H   0  0  0  0  0  0
  -26.9089  -19.2566  -24.8588 H   0  0  0  0  0  0
  1  2  2  0  0  0
  2  5  1  0  0  0
  2  3  1  0  0  0
  3  4  1  0  0  0
  3 17  1  0  0  0
  3 37  1  0  0  0
  4  5  1  0  0  0
  4 38  1  0  0  0
  4 39  1  0  0  0
  5  6  1  0  0  0
  6  7  1  0  0  0
  6 14  1  0  0  0
  6 40  1  0  0  0
  7 12  1  0  0  0
  7  8  2  0  0  0
  8  9  1  0  0  0
  8 41  1  0  0  0
  9 10  2  0  0  0
  9 42  1  0  0  0
 10 11  1  0  0  0
 10 13  1  0  0  0
 11 12  2  0  0  0
 11 43  1  0  0  0
 12 44  1  0  0  0
 13 45  1  0  0  0
 14 15  1  0  0  0
 14 16  2  0  0  0
 17 18  1  0  0  0
 17 46  1  0  0  0
 18 19  1  0  0  0
 18 36  2  0  0  0
 19 20  1  0  0  0
 19 34  2  3  0  0
 20 25  1  0  0  0
 20 21  2  0  0  0
 21 22  1  0  0  0
 21 47  1  0  0  0
 22 23  2  0  0  0
 22 48  1  0  0  0
 23 24  1  0  0  0
 23 26  1  0  0  0
 24 25  2  0  0  0
 24 49  1  0  0  0
 25 50  1  0  0  0
 26 27  1  0  0  0
 27 28  1  0  0  0
 27 51  1  0  0  0
 27 52  1  0  0  0
 28 29  1  0  0  0
 28 53  1  0  0  0
 28 54  1  0  0  0
 29 30  1  0  0  0
 29 33  1  0  0  0
 29 55  1  0  0  0
 30 31  1  0  0  0
 30 32  2  0  0  0
 33 56  1  0  0  0
 33 57  1  0  0  0
 33 59  1  0  0  0
 34 35  1  0  0  0
 35 58  1  0  0  0
M  CHG  3  15  -1  31  -1  33   1
M  END
> <s_m_entry_id>
27596

> <s_m_entry_name>
data_maestro.29

> <s_m_Source_Path>
C:\Users\olshana1\Git\GramNeg-Accumulation\Gram Negative Permeation - OmpF

> <s_m_Source_File>
data_maestro.csv

> <i_m_Source_File_Index>
29

> <s_m_job_name>
glide-dock_Nicaido_neutral

> <s_i_glide_gridfile>
3POX-grid

> <i_i_glide_lignum>
36

> <i_i_glide_rotatable_bonds>
14

> <r_i_docking_score>
-4.51145981078835

> <r_i_glide_ligand_efficiency>
-0.125318328077454

> <r_i_glide_ligand_efficiency_sa>
-0.413792001770586

> <r_i_glide_ligand_efficiency_ln>
-0.984278645155543

> <r_i_glide_gscore>
-4.51145981078835

> <r_i_glide_lipo>
0

> <r_i_glide_hbond>
-0.790443872318082

> <r_i_glide_metal>
0

> <r_i_glide_rewards>
0.0028485427976851

> <r_i_glide_evdw>
-29.9645442962646

> <r_i_glide_ecoul>
-18.2236061096191

> <r_i_glide_erotb>
0.900147327125679

> <r_i_glide_esite>
-0.392243677137532

> <r_i_glide_emodel>
-72.6984965901225

> <r_i_glide_energy>
-48.1881504058838

> <r_i_glide_einternal>
11.4837999343872

> <i_i_glide_confnum>
333

> <i_i_glide_posenum>
41

> <r_i_glide_eff_state_penalty>
0

> <r_glide_res:A132_vdw>
2.37617640835459

> <r_glide_res:A132_coul>
-42.9586530547317

> <r_glide_res:A132_hbond>
-0.2

> <r_glide_res:A132_dist>
1.6385704761253

> <r_glide_res:A132_Eint>
-40.7824766463771

> <r_glide_res:A117_vdw>
-3.00742393076839

> <r_glide_res:A117_coul>
-11.8127163773228

> <r_glide_res:A117_hbond>
0

> <r_glide_res:A117_dist>
2.12840470699155

> <r_glide_res:A117_Eint>
-14.8201403080912

> <r_glide_res:A113_vdw>
-1.79716546385743

> <r_glide_res:A113_coul>
12.4814779893996

> <r_glide_res:A113_hbond>
0

> <r_glide_res:A113_dist>
2.67670675057219

> <r_glide_res:A113_Eint>
10.6843125255422

> <r_glide_res:A82_vdw>
-1.24682300625159

> <r_glide_res:A82_coul>
-35.0035360515101

> <r_glide_res:A82_hbond>
0

> <r_glide_res:A82_dist>
3.74624315051073

> <r_glide_res:A82_Eint>
-36.2503590577617

> <r_glide_res:A42_vdw>
1.15035732237398

> <r_glide_res:A42_coul>
-43.2840350557295

> <r_glide_res:A42_hbond>
-0.211797870563465

> <r_glide_res:A42_dist>
1.80617341806288

> <r_glide_res:A42_Eint>
-42.345475603919

> <r_glide_res:A16_vdw>
0.8310684725026

> <r_glide_res:A16_coul>
-31.9647390618332

> <r_glide_res:A16_hbond>
-0.2

> <r_glide_res:A16_dist>
1.86180512863866

> <r_glide_res:A16_Eint>
-31.3336705893306

> <s_m_source_file>
ligprep_Nicaido_neutral.maegz

> <i_m_source_file_index>
29

> <i_lp_mmshare_version>
58128

> <i_f3d_flags>
0

> <s_lp_Force_Field>
S-OPLS

> <r_lp_Energy>
60.848016

> <b_lp_Chiralities_Consistent>
1

> <s_lp_Variant>
Nocardicin B-1

> <s_epik_input>
W2NIXTFbY0hdYyhbT0hdKVtjSF1bY0hdYzFbQ0BIXShDKD1PKVtPSF0pTjJbQ0gyXVtDQEBIXShDMj1PKVtOSF1DKD1PKS9DKD1OL1tPSF0pYzNbY0hdW2NIXWMoW2NIXVtjSF0zKU9bQ0gyXVtDSDJdW0NAQEhdKFtOSDJdKUMoPU8pW09IXQ==

> <s_epik_cmdline>
J2VwaWtfcHl0aG9uJywgJy1waHQnLCAnMC4wJywgJy1waCcsICc3LjQnLCAnLW50JywgJy1tYScsICc1MDAnLCAnLWltYWUnLCAnPGluZmlsZS5tYWU+JywgJy1vbWFlJywgJzxvdXRmaWxlLm1hZT4n

> <r_lp_tautomer_probability>
1

> <r_epik_Ionization_Penalty>
  0.0116

> <r_epik_Ionization_Penalty_Charging>
  0.0086

> <r_epik_Ionization_Penalty_Neutral>
  0.0030

> <r_epik_State_Penalty>
  0.0000

> <r_epik_Charging_Adjusted_Penalty>
0.0085560600321308

> <i_epik_Tot_Q>
-1

> <i_epik_Tot_abs_Q>
3

> <s_epik_Chemistry_Notes>
This compound has an imine and may undergo hydrolysis.

> <s_m_subgroup_title>
glide-dock_Nicaido_neutral_pv1

> <s_m_subgroupid>
glide-dock_Nicaido_neutral_pv1

> <b_m_subgroup_collapsed>
0

$$$$
Nocardicin B
                    3D
 Schrodinger Suite 2022-2.
 59 61  0  0  1  0            999 V2000
  -37.0299  -24.7902  -25.0542 O   0  0  0  0  0  0
  -36.8530  -25.6700  -25.8681 C   0  0  0  0  0  0
  -36.1475  -25.7956  -27.2237 C   0  0  2  0  0  0
  -36.5528  -27.2690  -27.1643 C   0  0  0  0  0  0
  -37.2468  -26.9839  -25.8970 N   0  0  0  0  0  0
  -38.1227  -27.7632  -25.0221 C   0  0  2  0  0  0
  -37.3681  -28.5309  -23.9723 C   0  0  0  0  0  0
  -38.0617  -28.9699  -22.8168 C   0  0  0  0  0  0
  -37.4598  -29.8168  -21.8694 C   0  0  0  0  0  0
  -36.1328  -30.2389  -22.0539 C   0  0  0  0  0  0
  -35.3982  -29.7661  -23.1558 C   0  0  0  0  0  0
  -36.0102  -28.9198  -24.0990 C   0  0  0  0  0  0
  -35.5698  -31.1187  -21.1799 O   0  0  0  0  0  0
  -38.8821  -28.8169  -25.8523 C   0  0  0  0  0  0
  -39.9412  -28.4557  -26.4106 O   0  5  0  0  0  0
  -38.3689  -29.9507  -26.0133 O   0  0  0  0  0  0
  -34.7140  -25.5907  -27.0939 N   0  0  0  0  0  0
  -33.7899  -25.8809  -28.0216 C   0  0  0  0  0  0
  -32.3571  -25.5483  -27.5943 C   0  0  0  0  0  0
  -32.2199  -24.9936  -26.2211 C   0  0  0  0  0  0
  -31.9480  -23.6221  -26.0417 C   0  0  0  0  0  0
  -31.7886  -23.0812  -24.7511 C   0  0  0  0  0  0
  -31.8923  -23.9098  -23.6064 C   0  0  0  0  0  0
  -32.2314  -25.2658  -23.7883 C   0  0  0  0  0  0
  -32.3755  -25.8103  -25.0805 C   0  0  0  0  0  0
  -31.6540  -23.4917  -22.3121 O   0  0  0  0  0  0
  -31.5033  -22.1018  -22.0341 C   0  0  0  0  0  0
  -30.1024  -21.5087  -22.3397 C   0  0  0  0  0  0
  -28.9140  -21.9589  -21.4507 C   0  0  2  0  0  0
  -28.4125  -23.4022  -21.6913 C   0  0  0  0  0  0
  -27.7855  -23.9496  -20.7547 O   0  5  0  0  0  0
  -28.5810  -23.9424  -22.8113 O   0  0  0  0  0  0
  -29.1683  -21.7156  -20.0136 N   0  3  0  0  0  0
  -31.2964  -25.6614  -28.3035 N   0  0  0  0  0  0
  -31.5672  -26.1804  -29.6133 O   0  0  0  0  0  0
  -34.0552  -26.3508  -29.1290 O   0  0  0  0  0  0
  -36.6161  -25.2477  -28.0438 H   0  0  0  0  0  0
  -37.2170  -27.5611  -27.9807 H   0  0  0  0  0  0
  -35.7193  -27.9678  -27.0777 H   0  0  0  0  0  0
  -38.8459  -27.0890  -24.5597 H   0  0  0  0  0  0
  -39.0953  -28.6908  -22.6820 H   0  0  0  0  0  0
  -38.0330  -30.1601  -21.0203 H   0  0  0  0  0  0
  -34.3748  -30.0773  -23.2974 H   0  0  0  0  0  0
  -35.4265  -28.6131  -24.9517 H   0  0  0  0  0  0
  -36.1609  -31.4025  -20.4994 H   0  0  0  0  0  0
  -34.4018  -25.2128  -26.2118 H   0  0  0  0  0  0
  -31.8520  -22.9754  -26.8999 H   0  0  0  0  0  0
  -31.5711  -22.0276  -24.6707 H   0  0  0  0  0  0
  -32.3455  -25.9081  -22.9270 H   0  0  0  0  0  0
  -32.6056  -26.8624  -25.1950 H   0  0  0  0  0  0
  -31.7306  -21.9589  -20.9756 H   0  0  0  0  0  0
  -32.2732  -21.5346  -22.5608 H   0  0  0  0  0  0
  -30.1877  -20.4260  -22.2373 H   0  0  0  0  0  0
  -29.8356  -21.6613  -23.3851 H   0  0  0  0  0  0
  -28.0668  -21.3196  -21.7063 H   0  0  0  0  0  0
  -28.3399  -21.9605  -19.4901 H   0  0  0  0  0  0
  -29.4178  -20.7497  -19.8347 H   0  0  0  0  0  0
  -32.5110  -26.3385  -29.5867 H   0  0  0  0  0  0
  -29.9367  -22.2885  -19.6871 H   0  0  0  0  0  0
  1  2  2  0  0  0
  2  5  1  0  0  0
  2  3  1  0  0  0
  3  4  1  0  0  0
  3 17  1  0  0  0
  3 37  1  0  0  0
  4  5  1  0  0  0
  4 38  1  0  0  0
  4 39  1  0  0  0
  5  6  1  0  0  0
  6  7  1  0  0  0
  6 14  1  0  0  0
  6 40  1  0  0  0
  7 12  1  0  0  0
  7  8  2  0  0  0
  8  9  1  0  0  0
  8 41  1  0  0  0
  9 10  2  0  0  0
  9 42  1  0  0  0
 10 11  1  0  0  0
 10 13  1  0  0  0
 11 12  2  0  0  0
 11 43  1  0  0  0
 12 44  1  0  0  0
 13 45  1  0  0  0
 14 15  1  0  0  0
 14 16  2  0  0  0
 17 18  1  0  0  0
 17 46  1  0  0  0
 18 19  1  0  0  0
 18 36  2  0  0  0
 19 20  1  0  0  0
 19 34  2  3  0  0
 20 25  1  0  0  0
 20 21  2  0  0  0
 21 22  1  0  0  0
 21 47  1  0  0  0
 22 23  2  0  0  0
 22 48  1  0  0  0
 23 24  1  0  0  0
 23 26  1  0  0  0
 24 25  2  0  0  0
 24 49  1  0  0  0
 25 50  1  0  0  0
 26 27  1  0  0  0
 27 28  1  0  0  0
 27 51  1  0  0  0
 27 52  1  0  0  0
 28 29  1  0  0  0
 28 53  1  0  0  0
 28 54  1  0  0  0
 29 30  1  0  0  0
 29 33  1  0  0  0
 29 55  1  0  0  0
 30 31  1  0  0  0
 30 32  2  0  0  0
 33 56  1  0  0  0
 33 57  1  0  0  0
 33 59  1  0  0  0
 34 35  1  0  0  0
 35 58  1  0  0  0
M  CHG  3  15  -1  31  -1  33   1
M  END
> <s_m_entry_id>
27597

> <s_m_entry_name>
data_maestro.29

> <s_m_Source_Path>
C:\Users\olshana1\Git\GramNeg-Accumulation\Gram Negative Permeation - OmpF

> <s_m_Source_File>
data_maestro.csv

> <i_m_Source_File_Index>
29

> <s_m_job_name>
glide-dock_Nicaido_neutral

> <s_i_glide_gridfile>
3POX-grid

> <i_i_glide_lignum>
37

> <i_i_glide_rotatable_bonds>
14

> <r_i_docking_score>
-4.51137323245433

> <r_i_glide_ligand_efficiency>
-0.125315923123731

> <r_i_glide_ligand_efficiency_sa>
-0.413784060788365

> <r_i_glide_ligand_efficiency_ln>
-0.984259756102135

> <r_i_glide_gscore>
-4.51137323245433

> <r_i_glide_lipo>
-0.274519377009662

> <r_i_glide_hbond>
-0.909813162340447

> <r_i_glide_metal>
0

> <r_i_glide_rewards>
-0.00171443520310093

> <r_i_glide_evdw>
-21.9575023651123

> <r_i_glide_ecoul>
-17.9505386352539

> <r_i_glide_erotb>
0.900147327125679

> <r_i_glide_esite>
-0.435017671483094

> <r_i_glide_emodel>
-60.1033276481351

> <r_i_glide_energy>
-39.9080410003662

> <r_i_glide_einternal>
13.8255081176758

> <i_i_glide_confnum>
98

> <i_i_glide_posenum>
216

> <r_i_glide_eff_state_penalty>
0

> <r_glide_res:A132_vdw>
1.01312699889636

> <r_glide_res:A132_coul>
-35.0084330548198

> <r_glide_res:A132_hbond>
-0.2

> <r_glide_res:A132_dist>
1.8225903459412

> <r_glide_res:A132_Eint>
-34.1953060559235

> <r_glide_res:A117_vdw>
-0.252235272724965

> <r_glide_res:A117_coul>
7.55236744545796

> <r_glide_res:A117_hbond>
0

> <r_glide_res:A117_dist>
4.70767295411213

> <r_glide_res:A117_Eint>
7.300132172733

> <r_glide_res:A113_vdw>
0.842044747855246

> <r_glide_res:A113_coul>
-20.4960423754318

> <r_glide_res:A113_hbond>
-0.251811139164184

> <r_glide_res:A113_dist>
2.04260961686233

> <r_glide_res:A113_Eint>
-19.9058087667408

> <r_glide_res:A82_vdw>
-0.395911486020861

> <r_glide_res:A82_coul>
-41.1533525192045

> <r_glide_res:A82_hbond>
-0.33974132070458

> <r_glide_res:A82_dist>
2.08138831422016

> <r_glide_res:A82_Eint>
-41.8890053259299

> <r_glide_res:A42_vdw>
-3.07053255108561

> <r_glide_res:A42_coul>
-29.3356406226149

> <r_glide_res:A42_hbond>
0

> <r_glide_res:A42_dist>
2.17222986342987

> <r_glide_res:A42_Eint>
-32.4061731737005

> <r_glide_res:A16_vdw>
-2.10391590010282

> <r_glide_res:A16_coul>
-15.6037653745605

> <r_glide_res:A16_hbond>
0

> <r_glide_res:A16_dist>
2.68545428217958

> <r_glide_res:A16_Eint>
-17.7076812746633

> <s_m_source_file>
ligprep_Nicaido_neutral.maegz

> <i_m_source_file_index>
29

> <i_lp_mmshare_version>
58128

> <i_f3d_flags>
0

> <s_lp_Force_Field>
S-OPLS

> <r_lp_Energy>
65.715273

> <b_lp_Chiralities_Consistent>
1

> <s_lp_Variant>
Nocardicin B-2

> <s_epik_input>
W2NIXTFbY0hdYyhbT0hdKVtjSF1bY0hdYzFbQ0BIXShDKD1PKVtPSF0pTjJbQ0gyXVtDQEBIXShDMj1PKVtOSF1DKD1PKS9DKD1OL1tPSF0pYzNbY0hdW2NIXWMoW2NIXVtjSF0zKU9bQ0gyXVtDSDJdW0NAQEhdKFtOSDJdKUMoPU8pW09IXQ==

> <s_epik_cmdline>
J2VwaWtfcHl0aG9uJywgJy1waHQnLCAnMC4wJywgJy1waCcsICc3LjQnLCAnLW50JywgJy1tYScsICc1MDAnLCAnLWltYWUnLCAnPGluZmlsZS5tYWU+JywgJy1vbWFlJywgJzxvdXRmaWxlLm1hZT4n

> <r_lp_tautomer_probability>
1

> <r_epik_Ionization_Penalty>
  0.0116

> <r_epik_Ionization_Penalty_Charging>
  0.0086

> <r_epik_Ionization_Penalty_Neutral>
  0.0030

> <r_epik_State_Penalty>
  0.0000

> <r_epik_Charging_Adjusted_Penalty>
0.0085560600321308

> <i_epik_Tot_Q>
-1

> <i_epik_Tot_abs_Q>
3

> <s_epik_Chemistry_Notes>
This compound has an imine and may undergo hydrolysis.

> <s_m_subgroup_title>
glide-dock_Nicaido_neutral_pv1

> <s_m_subgroupid>
glide-dock_Nicaido_neutral_pv1

> <b_m_subgroup_collapsed>
0

$$$$
LY097964
                    3D
 Schrodinger Suite 2022-2.
 40 42  0  0  1  0            999 V2000
  -24.7346  -22.4985  -16.3558 C   0  0  0  0  0  0
  -25.0160  -21.9730  -17.6415 O   0  0  0  0  0  0
  -26.1648  -22.6145  -18.1262 N   0  0  0  0  0  0
  -26.6535  -22.0798  -19.1764 C   0  0  0  0  0  0
  -26.1296  -20.8657  -19.8851 C   0  0  0  0  0  0
  -25.7414  -19.7291  -19.2122 C   0  0  0  0  0  0
  -25.1664  -18.4794  -20.2806 S   0  0  0  0  0  0
  -25.4709  -19.5562  -21.6317 C   0  0  0  0  0  0
  -25.1935  -19.1841  -22.9358 N   0  0  0  0  0  0
  -25.9578  -20.7466  -21.2762 N   0  0  0  0  0  0
  -27.8591  -22.7221  -19.8276 C   0  0  0  0  0  0
  -28.7665  -21.8456  -20.2922 N   0  0  0  0  0  0
  -29.9850  -22.2056  -21.0188 C   0  0  1  0  0  0
  -30.5332  -21.0116  -21.8234 C   0  0  1  0  0  0
  -30.5174  -21.8755  -22.9915 N   0  0  0  0  0  0
  -29.7247  -22.8512  -22.4035 C   0  0  0  0  0  0
  -29.0878  -23.7935  -22.8365 O   0  0  0  0  0  0
  -30.9991  -21.4534  -24.2514 C   0  0  0  0  0  0
  -30.5513  -22.3279  -25.4707 C   0  0  0  0  0  0
  -29.9690  -21.7433  -26.4130 O   0  5  0  0  0  0
  -30.7688  -23.5551  -25.4070 O   0  0  0  0  0  0
  -31.8503  -20.3961  -24.3811 C   0  0  0  0  0  0
  -32.3351  -19.5500  -23.2050 C   0  0  0  0  0  0
  -32.2274  -20.3962  -21.6136 S   0  0  0  0  0  0
  -32.4183  -19.8921  -25.7048 C   0  0  0  0  0  0
  -27.9680  -23.9492  -19.9233 O   0  0  0  0  0  0
  -23.8628  -21.9968  -15.9339 H   0  0  0  0  0  0
  -25.5685  -22.3497  -15.6663 H   0  0  0  0  0  0
  -24.5194  -23.5659  -16.4098 H   0  0  0  0  0  0
  -25.7580  -19.5511  -18.1456 H   0  0  0  0  0  0
  -25.6046  -19.7195  -23.6836 H   0  0  0  0  0  0
  -25.1127  -18.1968  -23.1491 H   0  0  0  0  0  0
  -28.6428  -20.8625  -20.0879 H   0  0  0  0  0  0
  -30.7487  -22.6970  -20.4127 H   0  0  0  0  0  0
  -29.8241  -20.1865  -21.9398 H   0  0  0  0  0  0
  -31.7498  -18.6316  -23.1630 H   0  0  0  0  0  0
  -33.3753  -19.2641  -23.3534 H   0  0  0  0  0  0
  -32.0645  -18.8778  -25.9025 H   0  0  0  0  0  0
  -32.1705  -20.5076  -26.5668 H   0  0  0  0  0  0
  -33.5090  -19.8588  -25.6492 H   0  0  0  0  0  0
  1  2  1  0  0  0
  1 27  1  0  0  0
  1 28  1  0  0  0
  1 29  1  0  0  0
  2  3  1  0  0  0
  3  4  2  3  0  0
  4  5  1  0  0  0
  4 11  1  0  0  0
  5 10  1  0  0  0
  5  6  2  0  0  0
  6  7  1  0  0  0
  6 30  1  0  0  0
  7  8  1  0  0  0
  8  9  1  0  0  0
  8 10  2  0  0  0
  9 31  1  0  0  0
  9 32  1  0  0  0
 11 12  1  0  0  0
 11 26  2  0  0  0
 12 13  1  0  0  0
 12 33  1  0  0  0
 13 16  1  0  0  0
 13 14  1  0  0  0
 13 34  1  0  0  0
 14 24  1  0  0  0
 14 15  1  0  0  0
 14 35  1  0  0  0
 15 16  1  0  0  0
 15 18  1  0  0  0
 16 17  2  0  0  0
 18 19  1  0  0  0
 18 22  2  0  0  0
 19 20  1  0  0  0
 19 21  2  0  0  0
 22 23  1  0  0  0
 22 25  1  0  0  0
 23 24  1  0  0  0
 23 36  1  0  0  0
 23 37  1  0  0  0
 25 38  1  0  0  0
 25 39  1  0  0  0
 25 40  1  0  0  0
M  CHG  1  20  -1
M  END
> <s_m_entry_id>
27598

> <s_m_entry_name>
data_maestro.7

> <s_m_Source_Path>
C:\Users\olshana1\Git\GramNeg-Accumulation\Gram Negative Permeation - OmpF

> <s_m_Source_File>
data_maestro.csv

> <i_m_Source_File_Index>
7

> <s_m_job_name>
glide-dock_Nicaido_neutral

> <s_i_glide_gridfile>
3POX-grid

> <i_i_glide_lignum>
9

> <i_i_glide_rotatable_bonds>
6

> <r_i_docking_score>
-4.50396563165781

> <r_i_glide_ligand_efficiency>
-0.173229447371454

> <r_i_glide_ligand_efficiency_sa>
-0.513191556212972

> <r_i_glide_ligand_efficiency_ln>
-1.05774154987819

> <r_i_glide_gscore>
-4.50396563165781

> <r_i_glide_lipo>
0

> <r_i_glide_hbond>
-0.771247945073221

> <r_i_glide_metal>
0

> <r_i_glide_rewards>
-0.702395256246588

> <r_i_glide_evdw>
-26.5845909118652

> <r_i_glide_ecoul>
-11.0834245681763

> <r_i_glide_erotb>
0.622478626066327

> <r_i_glide_esite>
-0.661057825584627

> <r_i_glide_emodel>
-57.1068964694836

> <r_i_glide_energy>
-37.6680154800415

> <r_i_glide_einternal>
6.34966087341309

> <i_i_glide_confnum>
37

> <i_i_glide_posenum>
314

> <r_i_glide_eff_state_penalty>
0

> <r_glide_res:A132_vdw>
-1.11997216824765

> <r_glide_res:A132_coul>
-33.8900144786342

> <r_glide_res:A132_hbond>
-0.16

> <r_glide_res:A132_dist>
1.85961662119722

> <r_glide_res:A132_Eint>
-35.1699866468819

> <r_glide_res:A117_vdw>
-2.81647038978579

> <r_glide_res:A117_coul>
18.0480727562868

> <r_glide_res:A117_hbond>
0

> <r_glide_res:A117_dist>
2.65052840304407

> <r_glide_res:A117_Eint>
15.231602366501

> <r_glide_res:A113_vdw>
-4.28252087514139

> <r_glide_res:A113_coul>
15.5514937816387

> <r_glide_res:A113_hbond>
0

> <r_glide_res:A113_dist>
2.4225926895336

> <r_glide_res:A113_Eint>
11.2689729064973

> <r_glide_res:A82_vdw>
-1.58006485822916

> <r_glide_res:A82_coul>
-42.7001817147114

> <r_glide_res:A82_hbond>
-0.16

> <r_glide_res:A82_dist>
2.04327285075572

> <r_glide_res:A82_Eint>
-44.4402465729405

> <r_glide_res:A42_vdw>
-0.470793551365788

> <r_glide_res:A42_coul>
-46.6316967457755

> <r_glide_res:A42_hbond>
-0.251247945073221

> <r_glide_res:A42_dist>
2.10141605044743

> <r_glide_res:A42_Eint>
-47.3537382422145

> <r_glide_res:A16_vdw>
-0.166298717926317

> <r_glide_res:A16_coul>
-47.1375374541202

> <r_glide_res:A16_hbond>
-0.2

> <r_glide_res:A16_dist>
1.83208714801768

> <r_glide_res:A16_Eint>
-47.5038361720466

> <s_m_source_file>
ligprep_Nicaido_neutral.maegz

> <i_m_source_file_index>
7

> <i_lp_mmshare_version>
58128

> <i_f3d_flags>
0

> <s_lp_Force_Field>
S-OPLS

> <r_lp_Energy>
53.750759

> <b_lp_Chiralities_Consistent>
1

> <s_lp_Variant>
LY097964-1

> <s_epik_input>
W05IMl1jKG4xKXNbY0hdYzEvQyg9TlxPW0NIM10pQyg9TylbTkhdW0NAQEhdMkMoPU8pTihbQ0BIXTIzKUMoQyg9TylbT0hdKT1DKFtDSDJdUzMpW0NIM10=

> <s_epik_cmdline>
J2VwaWtfcHl0aG9uJywgJy1waHQnLCAnMC4wJywgJy1waCcsICc3LjQnLCAnLW50JywgJy1tYScsICc1MDAnLCAnLWltYWUnLCAnPGluZmlsZS5tYWU+JywgJy1vbWFlJywgJzxvdXRmaWxlLm1hZT4n

> <r_lp_tautomer_probability>
1

> <r_epik_Ionization_Penalty>
  0.0005

> <r_epik_Ionization_Penalty_Charging>
  0.0000

> <r_epik_Ionization_Penalty_Neutral>
  0.0005

> <r_epik_State_Penalty>
  0.0000

> <r_epik_Charging_Adjusted_Penalty>
1.64985111359435e-05

> <i_epik_Tot_Q>
-1

> <i_epik_Tot_abs_Q>
1

> <s_epik_Chemistry_Notes>
This compound has an imine and may undergo hydrolysis. This compound contains an acetal/aminal-like group ( X-CH(R)-Y where X, Y are N, S, or O) that may be acid/base labile, releasing an aldehyde.

> <s_m_subgroup_title>
glide-dock_Nicaido_neutral_pv1

> <s_m_subgroupid>
glide-dock_Nicaido_neutral_pv1

> <b_m_subgroup_collapsed>
0

$$$$
Cefamandole
                    3D
 Schrodinger Suite 2022-2.
 48 51  0  0  1  0            999 V2000
  -32.4328  -16.8974  -24.5663 C   0  0  0  0  0  0
  -32.6482  -17.9647  -25.5175 N   0  0  0  0  0  0
  -31.8639  -18.9759  -25.9071 C   0  0  0  0  0  0
  -30.2324  -19.2522  -25.3173 S   0  0  0  0  0  0
  -30.6507  -20.2553  -23.8610 C   0  0  0  0  0  0
  -29.4186  -20.5038  -22.9977 C   0  0  0  0  0  0
  -28.6755  -21.6441  -23.0502 C   0  0  0  0  0  0
  -27.4931  -21.8004  -22.3045 N   0  0  0  0  0  0
  -26.7317  -20.6536  -21.8510 C   0  0  2  0  0  0
  -25.6975  -21.6409  -21.2818 C   0  0  2  0  0  0
  -26.5469  -22.7505  -21.9468 C   0  0  0  0  0  0
  -26.4546  -23.9464  -22.1422 O   0  0  0  0  0  0
  -25.7093  -21.6564  -19.8255 N   0  0  0  0  0  0
  -24.9151  -22.4155  -19.0585 C   0  0  0  0  0  0
  -24.9292  -22.0962  -17.5520 C   0  0  2  0  0  0
  -24.2275  -20.7627  -17.2991 C   0  0  0  0  0  0
  -24.9158  -19.5506  -17.5328 C   0  0  0  0  0  0
  -24.2912  -18.3130  -17.2902 C   0  0  0  0  0  0
  -22.9683  -18.2745  -16.8135 C   0  0  0  0  0  0
  -22.2692  -19.4742  -16.5844 C   0  0  0  0  0  0
  -22.8936  -20.7130  -16.8302 C   0  0  0  0  0  0
  -24.3680  -23.1633  -16.8073 O   0  0  0  0  0  0
  -24.2009  -23.3073  -19.5245 O   0  0  0  0  0  0
  -27.8293  -19.6328  -20.8271 S   0  0  0  0  0  0
  -29.0845  -19.3072  -22.1002 C   0  0  0  0  0  0
  -29.1041  -22.8930  -23.8808 C   0  0  0  0  0  0
  -29.1688  -22.7497  -25.1273 O   0  5  0  0  0  0
  -29.2650  -23.9494  -23.2244 O   0  0  0  0  0  0
  -32.4802  -19.7239  -26.8133 N   0  0  0  0  0  0
  -33.7097  -19.1117  -26.9668 N   0  0  0  0  0  0
  -33.8161  -18.0664  -26.1979 N   0  0  0  0  0  0
  -31.3638  -16.7495  -24.4111 H   0  0  0  0  0  0
  -32.8652  -15.9670  -24.9379 H   0  0  0  0  0  0
  -32.8969  -17.1545  -23.6134 H   0  0  0  0  0  0
  -31.1207  -21.1798  -24.1939 H   0  0  0  0  0  0
  -31.4056  -19.7368  -23.2679 H   0  0  0  0  0  0
  -26.3441  -20.0824  -22.6973 H   0  0  0  0  0  0
  -24.7069  -21.4929  -21.7151 H   0  0  0  0  0  0
  -26.3044  -20.9699  -19.3804 H   0  0  0  0  0  0
  -25.9691  -22.0024  -17.2316 H   0  0  0  0  0  0
  -25.9394  -19.5552  -17.8800 H   0  0  0  0  0  0
  -24.8354  -17.3939  -17.4527 H   0  0  0  0  0  0
  -22.4976  -17.3228  -16.6101 H   0  0  0  0  0  0
  -21.2540  -19.4426  -16.2176 H   0  0  0  0  0  0
  -22.3398  -21.6230  -16.6525 H   0  0  0  0  0  0
  -24.5319  -22.9838  -15.8932 H   0  0  0  0  0  0
  -28.7689  -18.4778  -22.7301 H   0  0  0  0  0  0
  -29.9841  -18.9756  -21.5803 H   0  0  0  0  0  0
  1  2  1  0  0  0
  1 32  1  0  0  0
  1 33  1  0  0  0
  1 34  1  0  0  0
  2 31  1  0  0  0
  2  3  1  0  0  0
  3  4  1  0  0  0
  3 29  2  0  0  0
  4  5  1  0  0  0
  5  6  1  0  0  0
  5 35  1  0  0  0
  5 36  1  0  0  0
  6 25  1  0  0  0
  6  7  2  0  0  0
  7  8  1  0  0  0
  7 26  1  0  0  0
  8 11  1  0  0  0
  8  9  1  0  0  0
  9 10  1  0  0  0
  9 24  1  0  0  0
  9 37  1  0  0  0
 10 11  1  0  0  0
 10 13  1  0  0  0
 10 38  1  0  0  0
 11 12  2  0  0  0
 13 14  1  0  0  0
 13 39  1  0  0  0
 14 15  1  0  0  0
 14 23  2  0  0  0
 15 16  1  0  0  0
 15 22  1  0  0  0
 15 40  1  0  0  0
 16 21  1  0  0  0
 16 17  2  0  0  0
 17 18  1  0  0  0
 17 41  1  0  0  0
 18 19  2  0  0  0
 18 42  1  0  0  0
 19 20  1  0  0  0
 19 43  1  0  0  0
 20 21  2  0  0  0
 20 44  1  0  0  0
 21 45  1  0  0  0
 22 46  1  0  0  0
 24 25  1  0  0  0
 25 47  1  0  0  0
 25 48  1  0  0  0
 26 27  1  0  0  0
 26 28  2  0  0  0
 29 30  1  0  0  0
 30 31  2  0  0  0
M  CHG  1  27  -1
M  END
> <s_m_entry_id>
27599

> <s_m_entry_name>
data_maestro.9

> <s_m_Source_Path>
C:\Users\olshana1\Git\GramNeg-Accumulation\Gram Negative Permeation - OmpF

> <s_m_Source_File>
data_maestro.csv

> <i_m_Source_File_Index>
9

> <s_m_job_name>
glide-dock_Nicaido_neutral

> <s_i_glide_gridfile>
3POX-grid

> <i_i_glide_lignum>
12

> <i_i_glide_rotatable_bonds>
9

> <r_i_docking_score>
-4.49905981791339

> <r_i_glide_ligand_efficiency>
-0.145130961868174

> <r_i_glide_ligand_efficiency_sa>
-0.45591159515377

> <r_i_glide_ligand_efficiency_ln>
-1.01467586856417

> <r_i_glide_gscore>
-4.49905981791339

> <r_i_glide_lipo>
0

> <r_i_glide_hbond>
-0.600663800305316

> <r_i_glide_metal>
0

> <r_i_glide_rewards>
-0.259193918262177

> <r_i_glide_evdw>
-29.9482421875

> <r_i_glide_ecoul>
-14.7017774581909

> <r_i_glide_erotb>
0.567285116635731

> <r_i_glide_esite>
-0.503808487877991

> <r_i_glide_emodel>
-66.6745547567459

> <r_i_glide_energy>
-44.6500196456909

> <r_i_glide_einternal>
7.07601976394653

> <i_i_glide_confnum>
73

> <i_i_glide_posenum>
303

> <r_i_glide_eff_state_penalty>
0

> <r_glide_res:A132_vdw>
-1.57954080202974

> <r_glide_res:A132_coul>
-37.9227999761829

> <r_glide_res:A132_hbond>
-0.0709741473644981

> <r_glide_res:A132_dist>
2.21940575763579

> <r_glide_res:A132_Eint>
-39.5733149255771

> <r_glide_res:A117_vdw>
-3.023208545741

> <r_glide_res:A117_coul>
18.3465796282927

> <r_glide_res:A117_hbond>
0

> <r_glide_res:A117_dist>
2.29703465064105

> <r_glide_res:A117_Eint>
15.3233710825517

> <r_glide_res:A113_vdw>
-1.97853546144332

> <r_glide_res:A113_coul>
21.5162860999834

> <r_glide_res:A113_hbond>
0

> <r_glide_res:A113_dist>
3.19009482121501

> <r_glide_res:A113_Eint>
19.5377506385401

> <r_glide_res:A82_vdw>
1.12315196419135

> <r_glide_res:A82_coul>
-52.782020692512

> <r_glide_res:A82_hbond>
-0.329689652940818

> <r_glide_res:A82_dist>
1.76391105076255

> <r_glide_res:A82_Eint>
-51.9885583812614

> <r_glide_res:A42_vdw>
0.235848704108084

> <r_glide_res:A42_coul>
-47.4025113283964

> <r_glide_res:A42_hbond>
-0.2

> <r_glide_res:A42_dist>
1.73741531336856

> <r_glide_res:A42_Eint>
-47.3666626242883

> <r_glide_res:A16_vdw>
-0.867138350884947

> <r_glide_res:A16_coul>
-35.6782879386536

> <r_glide_res:A16_hbond>
0

> <r_glide_res:A16_dist>
2.54273560363853

> <r_glide_res:A16_Eint>
-36.5454262895385

> <s_m_source_file>
ligprep_Nicaido_neutral.maegz

> <i_m_source_file_index>
9

> <i_lp_mmshare_version>
58128

> <i_f3d_flags>
0

> <s_lp_Force_Field>
S-OPLS

> <r_lp_Energy>
50.610726

> <b_lp_Chiralities_Consistent>
1

> <s_lp_Variant>
Cefamandole-1

> <s_epik_input>
bjFubmMobjFbQ0gzXSlTW0NIMl1DKD1DMkMoPU8pW09IXSlbQ0gyXVNbQ0BIXShOMjMpW0NASF0oQzM9TylbTkhdQyg9TylbQ0BASF0oW09IXSljNFtjSF1bY0hdW2NIXVtjSF1bY0hdNA==

> <s_epik_cmdline>
J2VwaWtfcHl0aG9uJywgJy1waHQnLCAnMC4wJywgJy1waCcsICc3LjQnLCAnLW50JywgJy1tYScsICc1MDAnLCAnLWltYWUnLCAnPGluZmlsZS5tYWU+JywgJy1vbWFlJywgJzxvdXRmaWxlLm1hZT4n

> <r_lp_tautomer_probability>
1

> <r_epik_Ionization_Penalty>
  0.0002

> <r_epik_Ionization_Penalty_Charging>
  0.0000

> <r_epik_Ionization_Penalty_Neutral>
  0.0002

> <r_epik_State_Penalty>
  0.0000

> <r_epik_Charging_Adjusted_Penalty>
8.65070171415913e-06

> <i_epik_Tot_Q>
-1

> <i_epik_Tot_abs_Q>
1

> <s_epik_Chemistry_Notes>
This compound contains an acetal/aminal-like group ( X-CH(R)-Y where X, Y are N, S, or O) that may be acid/base labile, releasing an aldehyde.

> <s_m_subgroup_title>
glide-dock_Nicaido_neutral_pv1

> <s_m_subgroupid>
glide-dock_Nicaido_neutral_pv1

> <b_m_subgroup_collapsed>
0

$$$$
Sulbenicillin
                    3D
 Schrodinger Suite 2022-2.
 43 45  0  0  1  0            999 V2000
  -28.8968  -21.3439  -20.8238 C   0  0  0  0  0  0
  -29.3268  -21.0138  -22.2689 C   0  0  0  0  0  0
  -29.0487  -22.1557  -23.3164 C   0  0  2  0  0  0
  -30.2736  -22.2374  -24.0865 N   0  0  0  0  0  0
  -31.5850  -21.9382  -23.5432 C   0  0  1  0  0  0
  -31.1386  -20.6951  -22.2961 S   0  0  0  0  0  0
  -32.0618  -21.6714  -24.9794 C   0  0  2  0  0  0
  -30.6177  -21.9731  -25.3870 C   0  0  0  0  0  0
  -29.9686  -21.9495  -26.4123 O   0  0  0  0  0  0
  -32.4250  -20.2813  -25.2368 N   0  0  0  0  0  0
  -32.8899  -19.8562  -26.4227 C   0  0  0  0  0  0
  -33.0321  -18.3365  -26.6100 C   0  0  2  0  0  0
  -34.3026  -17.8401  -25.9207 C   0  0  0  0  0  0
  -35.5877  -18.0869  -26.4579 C   0  0  0  0  0  0
  -36.7426  -17.6773  -25.7649 C   0  0  0  0  0  0
  -36.6258  -17.0350  -24.5184 C   0  0  0  0  0  0
  -35.3523  -16.8026  -23.9690 C   0  0  0  0  0  0
  -34.1956  -17.1875  -24.6722 C   0  0  0  0  0  0
  -32.8751  -17.8056  -28.3986 S   0  0  0  0  0  0
  -32.9288  -16.3371  -28.3392 O   0  0  0  0  0  0
  -34.0134  -18.4114  -29.1077 O   0  5  0  0  0  0
  -31.5691  -18.3494  -28.8138 O   0  0  0  0  0  0
  -33.1688  -20.6451  -27.3278 O   0  0  0  0  0  0
  -28.6689  -23.5496  -22.7704 C   0  0  0  0  0  0
  -27.4628  -23.8854  -22.8133 O   0  5  0  0  0  0
  -29.5663  -24.3484  -22.4136 O   0  0  0  0  0  0
  -28.6186  -19.7211  -22.7140 C   0  0  0  0  0  0
  -27.8295  -21.5571  -20.7598 H   0  0  0  0  0  0
  -29.1058  -20.5082  -20.1563 H   0  0  0  0  0  0
  -29.4430  -22.1984  -20.4230 H   0  0  0  0  0  0
  -28.2434  -21.8532  -23.9878 H   0  0  0  0  0  0
  -32.0626  -22.8046  -23.0814 H   0  0  0  0  0  0
  -32.8019  -22.4016  -25.3113 H   0  0  0  0  0  0
  -32.2354  -19.6107  -24.5042 H   0  0  0  0  0  0
  -32.1772  -17.8642  -26.1265 H   0  0  0  0  0  0
  -35.7020  -18.6132  -27.3926 H   0  0  0  0  0  0
  -37.7194  -17.8751  -26.1800 H   0  0  0  0  0  0
  -37.5136  -16.7370  -23.9796 H   0  0  0  0  0  0
  -35.2610  -16.3440  -22.9977 H   0  0  0  0  0  0
  -33.2270  -17.0052  -24.2285 H   0  0  0  0  0  0
  -27.5345  -19.8402  -22.7149 H   0  0  0  0  0  0
  -28.9208  -19.4252  -23.7193 H   0  0  0  0  0  0
  -28.8533  -18.8916  -22.0463 H   0  0  0  0  0  0
  1  2  1  0  0  0
  1 28  1  0  0  0
  1 29  1  0  0  0
  1 30  1  0  0  0
  2  6  1  0  0  0
  2  3  1  0  0  0
  2 27  1  0  0  0
  3  4  1  0  0  0
  3 24  1  0  0  0
  3 31  1  0  0  0
  4  8  1  0  0  0
  4  5  1  0  0  0
  5  6  1  0  0  0
  5  7  1  0  0  0
  5 32  1  0  0  0
  7  8  1  0  0  0
  7 10  1  0  0  0
  7 33  1  0  0  0
  8  9  2  0  0  0
 10 11  1  0  0  0
 10 34  1  0  0  0
 11 12  1  0  0  0
 11 23  2  0  0  0
 12 13  1  0  0  0
 12 19  1  0  0  0
 12 35  1  0  0  0
 13 18  1  0  0  0
 13 14  2  0  0  0
 14 15  1  0  0  0
 14 36  1  0  0  0
 15 16  2  0  0  0
 15 37  1  0  0  0
 16 17  1  0  0  0
 16 38  1  0  0  0
 17 18  2  0  0  0
 17 39  1  0  0  0
 18 40  1  0  0  0
 19 20  2  0  0  0
 19 21  1  0  0  0
 19 22  2  0  0  0
 24 25  1  0  0  0
 24 26  2  0  0  0
 27 41  1  0  0  0
 27 42  1  0  0  0
 27 43  1  0  0  0
M  CHG  2  21  -1  25  -1
M  END
> <s_m_entry_id>
27600

> <s_m_entry_name>
data_maestro.23

> <s_m_Source_Path>
C:\Users\olshana1\Git\GramNeg-Accumulation\Gram Negative Permeation - OmpF

> <s_m_Source_File>
data_maestro.csv

> <i_m_Source_File_Index>
23

> <s_m_job_name>
glide-dock_Nicaido_neutral

> <s_i_glide_gridfile>
3POX-grid

> <i_i_glide_lignum>
30

> <i_i_glide_rotatable_bonds>
6

> <r_i_docking_score>
-4.49782731324031

> <r_i_glide_ligand_efficiency>
-0.166586196786678

> <r_i_glide_ligand_efficiency_sa>
-0.499758589810993

> <r_i_glide_ligand_efficiency_ln>
-1.04702004604375

> <r_i_glide_gscore>
-4.49782731324031

> <r_i_glide_lipo>
0

> <r_i_glide_hbond>
-0.804129125409438

> <r_i_glide_metal>
0

> <r_i_glide_rewards>
-0.595478122293139

> <r_i_glide_evdw>
-19.6833457946777

> <r_i_glide_ecoul>
-13.3307209014893

> <r_i_glide_erotb>
0.347763984117939

> <r_i_glide_esite>
-0.462208624698395

> <r_i_glide_emodel>
-56.5183841839897

> <r_i_glide_energy>
-33.014066696167

> <r_i_glide_einternal>
1.76064097881317

> <i_i_glide_confnum>
6

> <i_i_glide_posenum>
381

> <r_i_glide_eff_state_penalty>
0

> <r_glide_res:A132_vdw>
-1.35514661455753

> <r_glide_res:A132_coul>
-50.9101256292091

> <r_glide_res:A132_hbond>
0

> <r_glide_res:A132_dist>
2.69712453915843

> <r_glide_res:A132_Eint>
-52.2652722437666

> <r_glide_res:A117_vdw>
-1.63990154443074

> <r_glide_res:A117_coul>
40.7826744754639

> <r_glide_res:A117_hbond>
0

> <r_glide_res:A117_dist>
2.71579367505217

> <r_glide_res:A117_Eint>
39.1427729310331

> <r_glide_res:A113_vdw>
-2.53461107485719

> <r_glide_res:A113_coul>
41.440325598958

> <r_glide_res:A113_hbond>
0

> <r_glide_res:A113_dist>
2.41186602170857

> <r_glide_res:A113_Eint>
38.9057145241008

> <r_glide_res:A82_vdw>
3.97412833116049

> <r_glide_res:A82_coul>
-72.2251736351756

> <r_glide_res:A82_hbond>
-0.4

> <r_glide_res:A82_dist>
1.63116289054443

> <r_glide_res:A82_Eint>
-68.6510453040151

> <r_glide_res:A42_vdw>
-1.14906745087868

> <r_glide_res:A42_coul>
-53.6692996453368

> <r_glide_res:A42_hbond>
-0.120912326694612

> <r_glide_res:A42_dist>
2.03528896793847

> <r_glide_res:A42_Eint>
-54.9392794229101

> <r_glide_res:A16_vdw>
-0.350641989778248

> <r_glide_res:A16_coul>
-79.1558341584794

> <r_glide_res:A16_hbond>
-0.283216798714826

> <r_glide_res:A16_dist>
1.90834403764323

> <r_glide_res:A16_Eint>
-79.7896929469725

> <s_m_source_file>
ligprep_Nicaido_neutral.maegz

> <i_m_source_file_index>
23

> <i_lp_mmshare_version>
58128

> <i_f3d_flags>
0

> <s_lp_Force_Field>
S-OPLS

> <r_lp_Energy>
22.166908

> <b_lp_Chiralities_Consistent>
1

> <s_lp_Variant>
Sulbenicillin-1

> <s_epik_input>
W09IXUMoPU8pW0NAQEhdMUMoW0NIM10pKFtDSDNdKVNbQ0BIXShOMTIpW0NASF0oQzI9TylbTkhdQyg9TylbQ0BASF0oUyg9TykoPU8pW09IXSljM1tjSF1bY0hdW2NIXVtjSF1bY0hdMw==

> <s_epik_cmdline>
J2VwaWtfcHl0aG9uJywgJy1waHQnLCAnMC4wJywgJy1waCcsICc3LjQnLCAnLW50JywgJy1tYScsICc1MDAnLCAnLWltYWUnLCAnPGluZmlsZS5tYWU+JywgJy1vbWFlJywgJzxvdXRmaWxlLm1hZT4n

> <r_lp_tautomer_probability>
1

> <r_epik_Ionization_Penalty>
  0.0000

> <r_epik_Ionization_Penalty_Charging>
  0.0000

> <r_epik_Ionization_Penalty_Neutral>
  0.0000

> <r_epik_State_Penalty>
  0.0000

> <r_epik_Charging_Adjusted_Penalty>
1.13251598244902e-05

> <i_epik_Tot_Q>
-2

> <i_epik_Tot_abs_Q>
2

> <s_epik_Chemistry_Notes>
This compound contains an acetal/aminal-like group ( X-CH(R)-Y where X, Y are N, S, or O) that may be acid/base labile, releasing an aldehyde.

> <s_m_subgroup_title>
glide-dock_Nicaido_neutral_pv1

> <s_m_subgroupid>
glide-dock_Nicaido_neutral_pv1

> <b_m_subgroup_collapsed>
0

$$$$
Sulbenicillin
                    3D
 Schrodinger Suite 2022-2.
 43 45  0  0  1  0            999 V2000
  -21.6024  -22.3124  -19.2315 C   0  0  0  0  0  0
  -23.0996  -22.6726  -19.3209 C   0  0  0  0  0  0
  -23.5347  -23.9234  -18.4777 C   0  0  2  0  0  0
  -24.8690  -23.5837  -18.0359 N   0  0  0  0  0  0
  -25.3370  -22.2339  -17.7677 C   0  0  1  0  0  0
  -24.1211  -21.2659  -18.7265 S   0  0  0  0  0  0
  -26.7358  -22.6713  -18.2501 C   0  0  2  0  0  0
  -26.0922  -24.0578  -18.4137 C   0  0  0  0  0  0
  -26.4306  -25.1503  -18.8103 O   0  0  0  0  0  0
  -27.1073  -22.0437  -19.5247 N   0  0  0  0  0  0
  -27.9262  -22.5780  -20.4515 C   0  0  0  0  0  0
  -27.9761  -21.8831  -21.8253 C   0  0  2  0  0  0
  -29.1934  -20.9699  -21.9719 C   0  0  0  0  0  0
  -30.5125  -21.4750  -21.9089 C   0  0  0  0  0  0
  -31.6158  -20.6048  -22.0131 C   0  0  0  0  0  0
  -31.4121  -19.2205  -22.1720 C   0  0  0  0  0  0
  -30.1030  -18.7088  -22.2351 C   0  0  0  0  0  0
  -29.0004  -19.5794  -22.1390 C   0  0  0  0  0  0
  -27.8315  -23.1371  -23.1960 S   0  0  0  0  0  0
  -26.6665  -23.9495  -22.8089 O   0  0  0  0  0  0
  -27.6188  -22.3666  -24.4337 O   0  5  0  0  0  0
  -29.0781  -23.9217  -23.2062 O   0  0  0  0  0  0
  -28.5612  -23.6170  -20.2544 O   0  0  0  0  0  0
  -22.6710  -24.3423  -17.2724 C   0  0  0  0  0  0
  -22.3718  -23.4864  -16.4134 O   0  5  0  0  0  0
  -22.3401  -25.5494  -17.2129 O   0  0  0  0  0  0
  -23.4547  -22.9101  -20.8030 C   0  0  0  0  0  0
  -20.9723  -23.1590  -19.5049 H   0  0  0  0  0  0
  -21.3569  -21.4882  -19.9018 H   0  0  0  0  0  0
  -21.3194  -21.9922  -18.2286 H   0  0  0  0  0  0
  -23.5935  -24.7958  -19.1311 H   0  0  0  0  0  0
  -25.3046  -21.9777  -16.7065 H   0  0  0  0  0  0
  -27.4975  -22.5950  -17.4724 H   0  0  0  0  0  0
  -26.6485  -21.1690  -19.7350 H   0  0  0  0  0  0
  -27.0781  -21.2739  -21.9192 H   0  0  0  0  0  0
  -30.6864  -22.5301  -21.7572 H   0  0  0  0  0  0
  -32.6192  -20.9973  -21.9441 H   0  0  0  0  0  0
  -32.2561  -18.5488  -22.2303 H   0  0  0  0  0  0
  -29.9416  -17.6452  -22.3424 H   0  0  0  0  0  0
  -28.0045  -19.1619  -22.1785 H   0  0  0  0  0  0
  -22.8829  -23.7384  -21.2206 H   0  0  0  0  0  0
  -24.5130  -23.1413  -20.9302 H   0  0  0  0  0  0
  -23.2439  -22.0269  -21.4065 H   0  0  0  0  0  0
  1  2  1  0  0  0
  1 28  1  0  0  0
  1 29  1  0  0  0
  1 30  1  0  0  0
  2  6  1  0  0  0
  2  3  1  0  0  0
  2 27  1  0  0  0
  3  4  1  0  0  0
  3 24  1  0  0  0
  3 31  1  0  0  0
  4  8  1  0  0  0
  4  5  1  0  0  0
  5  6  1  0  0  0
  5  7  1  0  0  0
  5 32  1  0  0  0
  7  8  1  0  0  0
  7 10  1  0  0  0
  7 33  1  0  0  0
  8  9  2  0  0  0
 10 11  1  0  0  0
 10 34  1  0  0  0
 11 12  1  0  0  0
 11 23  2  0  0  0
 12 13  1  0  0  0
 12 19  1  0  0  0
 12 35  1  0  0  0
 13 18  1  0  0  0
 13 14  2  0  0  0
 14 15  1  0  0  0
 14 36  1  0  0  0
 15 16  2  0  0  0
 15 37  1  0  0  0
 16 17  1  0  0  0
 16 38  1  0  0  0
 17 18  2  0  0  0
 17 39  1  0  0  0
 18 40  1  0  0  0
 19 20  2  0  0  0
 19 21  1  0  0  0
 19 22  2  0  0  0
 24 25  1  0  0  0
 24 26  2  0  0  0
 27 41  1  0  0  0
 27 42  1  0  0  0
 27 43  1  0  0  0
M  CHG  2  21  -1  25  -1
M  END
> <s_m_entry_id>
27601

> <s_m_entry_name>
data_maestro.23

> <s_m_Source_Path>
C:\Users\olshana1\Git\GramNeg-Accumulation\Gram Negative Permeation - OmpF

> <s_m_Source_File>
data_maestro.csv

> <i_m_Source_File_Index>
23

> <s_m_job_name>
glide-dock_Nicaido_neutral

> <s_i_glide_gridfile>
3POX-grid

> <i_i_glide_lignum>
30

> <i_i_glide_rotatable_bonds>
6

> <r_i_docking_score>
-4.49708871698565

> <r_i_glide_ligand_efficiency>
-0.166558841369839

> <r_i_glide_ligand_efficiency_sa>
-0.499676523560566

> <r_i_glide_ligand_efficiency_ln>
-1.04684811301238

> <r_i_glide_gscore>
-4.49708871698565

> <r_i_glide_lipo>
0

> <r_i_glide_hbond>
-0.545038497166223

> <r_i_glide_metal>
0

> <r_i_glide_rewards>
-0.595656122265249

> <r_i_glide_evdw>
-24.229549407959

> <r_i_glide_ecoul>
-12.270001411438

> <r_i_glide_erotb>
0.347763984117939

> <r_i_glide_esite>
-0.652180399558473

> <r_i_glide_emodel>
-58.9837549177002

> <r_i_glide_energy>
-36.499550819397

> <r_i_glide_einternal>
3.79387497901917

> <i_i_glide_confnum>
6

> <i_i_glide_posenum>
354

> <r_i_glide_eff_state_penalty>
0

> <r_glide_res:A132_vdw>
-2.23383598461032

> <r_glide_res:A132_coul>
-66.9675104172812

> <r_glide_res:A132_hbond>
-0.185038497166223

> <r_glide_res:A132_dist>
2.12127679515448

> <r_glide_res:A132_Eint>
-69.3863848990577

> <r_glide_res:A117_vdw>
-1.73534993729064

> <r_glide_res:A117_coul>
35.106704772755

> <r_glide_res:A117_hbond>
0

> <r_glide_res:A117_dist>
2.5516937265481

> <r_glide_res:A117_Eint>
33.3713548354644

> <r_glide_res:A113_vdw>
-3.83526638306521

> <r_glide_res:A113_coul>
45.8574216941978

> <r_glide_res:A113_hbond>
0

> <r_glide_res:A113_dist>
3.51036444000999

> <r_glide_res:A113_Eint>
42.0221553111326

> <r_glide_res:A82_vdw>
4.80309388823486

> <r_glide_res:A82_coul>
-70.0504292770123

> <r_glide_res:A82_hbond>
0

> <r_glide_res:A82_dist>
1.64188779965952

> <r_glide_res:A82_Eint>
-65.2473353887774

> <r_glide_res:A42_vdw>
-1.06576915899739

> <r_glide_res:A42_coul>
-56.1528155756937

> <r_glide_res:A42_hbond>
-0.2

> <r_glide_res:A42_dist>
1.99006023253521

> <r_glide_res:A42_Eint>
-57.4185847346911

> <r_glide_res:A16_vdw>
-0.180299321218441

> <r_glide_res:A16_coul>
-36.7333059246612

> <r_glide_res:A16_hbond>
0

> <r_glide_res:A16_dist>
4.7105410162164

> <r_glide_res:A16_Eint>
-36.9136052458797

> <s_m_source_file>
ligprep_Nicaido_neutral.maegz

> <i_m_source_file_index>
23

> <i_lp_mmshare_version>
58128

> <i_f3d_flags>
0

> <s_lp_Force_Field>
S-OPLS

> <r_lp_Energy>
22.166908

> <b_lp_Chiralities_Consistent>
1

> <s_lp_Variant>
Sulbenicillin-1

> <s_epik_input>
W09IXUMoPU8pW0NAQEhdMUMoW0NIM10pKFtDSDNdKVNbQ0BIXShOMTIpW0NASF0oQzI9TylbTkhdQyg9TylbQ0BASF0oUyg9TykoPU8pW09IXSljM1tjSF1bY0hdW2NIXVtjSF1bY0hdMw==

> <s_epik_cmdline>
J2VwaWtfcHl0aG9uJywgJy1waHQnLCAnMC4wJywgJy1waCcsICc3LjQnLCAnLW50JywgJy1tYScsICc1MDAnLCAnLWltYWUnLCAnPGluZmlsZS5tYWU+JywgJy1vbWFlJywgJzxvdXRmaWxlLm1hZT4n

> <r_lp_tautomer_probability>
1

> <r_epik_Ionization_Penalty>
  0.0000

> <r_epik_Ionization_Penalty_Charging>
  0.0000

> <r_epik_Ionization_Penalty_Neutral>
  0.0000

> <r_epik_State_Penalty>
  0.0000

> <r_epik_Charging_Adjusted_Penalty>
1.13251598244902e-05

> <i_epik_Tot_Q>
-2

> <i_epik_Tot_abs_Q>
2

> <s_epik_Chemistry_Notes>
This compound contains an acetal/aminal-like group ( X-CH(R)-Y where X, Y are N, S, or O) that may be acid/base labile, releasing an aldehyde.

> <s_m_subgroup_title>
glide-dock_Nicaido_neutral_pv1

> <s_m_subgroupid>
glide-dock_Nicaido_neutral_pv1

> <b_m_subgroup_collapsed>
0

$$$$
LY097964
                    3D
 Schrodinger Suite 2022-2.
 40 42  0  0  1  0            999 V2000
  -32.0110  -23.9951  -27.3031 C   0  0  0  0  0  0
  -31.1791  -23.1409  -26.5363 O   0  0  0  0  0  0
  -31.9850  -22.5686  -25.5425 N   0  0  0  0  0  0
  -31.3640  -22.0336  -24.5622 C   0  0  0  0  0  0
  -32.1862  -21.4772  -23.4624 C   0  0  0  0  0  0
  -32.5086  -20.1411  -23.4057 C   0  0  0  0  0  0
  -33.4882  -19.7712  -22.0134 S   0  0  0  0  0  0
  -33.4096  -21.4680  -21.5532 C   0  0  0  0  0  0
  -34.0434  -21.9495  -20.4230 N   0  0  0  0  0  0
  -32.7004  -22.2208  -22.3939 N   0  0  0  0  0  0
  -29.8446  -21.9269  -24.3627 C   0  0  0  0  0  0
  -29.4830  -21.3549  -23.1976 N   0  0  0  0  0  0
  -28.1169  -21.1815  -22.7072 C   0  0  1  0  0  0
  -28.0900  -21.0007  -21.1784 C   0  0  1  0  0  0
  -27.0907  -22.0525  -21.1445 N   0  0  0  0  0  0
  -27.3753  -22.5058  -22.4169 C   0  0  0  0  0  0
  -27.1654  -23.5497  -22.9928 O   0  0  0  0  0  0
  -26.4890  -22.4737  -19.9413 C   0  0  0  0  0  0
  -25.8434  -23.8877  -19.9562 C   0  0  0  0  0  0
  -24.9579  -24.0949  -20.8146 O   0  5  0  0  0  0
  -26.3655  -24.7465  -19.2133 O   0  0  0  0  0  0
  -26.4356  -21.6814  -18.8418 C   0  0  0  0  0  0
  -27.0460  -20.2904  -18.7947 C   0  0  0  0  0  0
  -27.3644  -19.5406  -20.4129 S   0  0  0  0  0  0
  -25.8460  -22.1120  -17.5031 C   0  0  0  0  0  0
  -29.0268  -22.3490  -25.1868 O   0  0  0  0  0  0
  -31.4272  -24.4911  -28.0761 H   0  0  0  0  0  0
  -32.4585  -24.7739  -26.6826 H   0  0  0  0  0  0
  -32.8127  -23.4394  -27.7914 H   0  0  0  0  0  0
  -32.2359  -19.3503  -24.0896 H   0  0  0  0  0  0
  -33.7578  -22.8443  -20.0493 H   0  0  0  0  0  0
  -34.3279  -21.2662  -19.7276 H   0  0  0  0  0  0
  -30.2140  -21.0348  -22.5758 H   0  0  0  0  0  0
  -27.5385  -20.4244  -23.2396 H   0  0  0  0  0  0
  -29.0062  -21.3072  -20.6654 H   0  0  0  0  0  0
  -27.9778  -20.3495  -18.2303 H   0  0  0  0  0  0
  -26.3684  -19.6196  -18.2662 H   0  0  0  0  0  0
  -26.6517  -22.4083  -16.8319 H   0  0  0  0  0  0
  -25.1526  -22.9474  -17.5756 H   0  0  0  0  0  0
  -25.3048  -21.2894  -17.0381 H   0  0  0  0  0  0
  1  2  1  0  0  0
  1 27  1  0  0  0
  1 28  1  0  0  0
  1 29  1  0  0  0
  2  3  1  0  0  0
  3  4  2  3  0  0
  4  5  1  0  0  0
  4 11  1  0  0  0
  5 10  1  0  0  0
  5  6  2  0  0  0
  6  7  1  0  0  0
  6 30  1  0  0  0
  7  8  1  0  0  0
  8  9  1  0  0  0
  8 10  2  0  0  0
  9 31  1  0  0  0
  9 32  1  0  0  0
 11 12  1  0  0  0
 11 26  2  0  0  0
 12 13  1  0  0  0
 12 33  1  0  0  0
 13 16  1  0  0  0
 13 14  1  0  0  0
 13 34  1  0  0  0
 14 24  1  0  0  0
 14 15  1  0  0  0
 14 35  1  0  0  0
 15 16  1  0  0  0
 15 18  1  0  0  0
 16 17  2  0  0  0
 18 19  1  0  0  0
 18 22  2  0  0  0
 19 20  1  0  0  0
 19 21  2  0  0  0
 22 23  1  0  0  0
 22 25  1  0  0  0
 23 24  1  0  0  0
 23 36  1  0  0  0
 23 37  1  0  0  0
 25 38  1  0  0  0
 25 39  1  0  0  0
 25 40  1  0  0  0
M  CHG  1  20  -1
M  END
> <s_m_entry_id>
27602

> <s_m_entry_name>
data_maestro.7

> <s_m_Source_Path>
C:\Users\olshana1\Git\GramNeg-Accumulation\Gram Negative Permeation - OmpF

> <s_m_Source_File>
data_maestro.csv

> <i_m_Source_File_Index>
7

> <s_m_job_name>
glide-dock_Nicaido_neutral

> <s_i_glide_gridfile>
3POX-grid

> <i_i_glide_lignum>
10

> <i_i_glide_rotatable_bonds>
6

> <r_i_docking_score>
-4.49402084284245

> <r_i_glide_ligand_efficiency>
-0.17284695549394

> <r_i_glide_ligand_efficiency_sa>
-0.51205842553087

> <r_i_glide_ligand_efficiency_ln>
-1.05540604885642

> <r_i_glide_gscore>
-4.49402084284245

> <r_i_glide_lipo>
0

> <r_i_glide_hbond>
-1.11794033573181

> <r_i_glide_metal>
0

> <r_i_glide_rewards>
-0.687208259518078

> <r_i_glide_evdw>
-21.8629856109619

> <r_i_glide_ecoul>
-10.7227115631104

> <r_i_glide_erotb>
0.622478626066327

> <r_i_glide_esite>
-0.60979485864424

> <r_i_glide_emodel>
-52.0685246373068

> <r_i_glide_energy>
-32.5856971740723

> <r_i_glide_einternal>
4.08245468139648

> <i_i_glide_confnum>
17

> <i_i_glide_posenum>
268

> <r_i_glide_eff_state_penalty>
0

> <r_glide_res:A132_vdw>
1.90005874879947

> <r_glide_res:A132_coul>
-50.5513613492073

> <r_glide_res:A132_hbond>
-0.327688928790871

> <r_glide_res:A132_dist>
1.91045335479643

> <r_glide_res:A132_Eint>
-48.9789915291987

> <r_glide_res:A117_vdw>
-1.58391808523153

> <r_glide_res:A117_coul>
18.7660997875341

> <r_glide_res:A117_hbond>
0

> <r_glide_res:A117_dist>
3.52327039761817

> <r_glide_res:A117_Eint>
17.1821817023026

> <r_glide_res:A113_vdw>
-4.86525720180917

> <r_glide_res:A113_coul>
15.215132807287

> <r_glide_res:A113_hbond>
-0.32

> <r_glide_res:A113_dist>
2.04154532707155

> <r_glide_res:A113_Eint>
10.0298756054779

> <r_glide_res:A82_vdw>
-0.96911459443479

> <r_glide_res:A82_coul>
-39.0614281937304

> <r_glide_res:A82_hbond>
-0.16

> <r_glide_res:A82_dist>
1.83223216550236

> <r_glide_res:A82_Eint>
-40.1905427881652

> <r_glide_res:A42_vdw>
-1.37611382584833

> <r_glide_res:A42_coul>
-35.9411775078299

> <r_glide_res:A42_hbond>
-0.167847701696797

> <r_glide_res:A42_dist>
1.94536290633942

> <r_glide_res:A42_Eint>
-37.485139035375

> <r_glide_res:A16_vdw>
-1.74587745415444

> <r_glide_res:A16_coul>
-21.9185124486499

> <r_glide_res:A16_hbond>
0

> <r_glide_res:A16_dist>
2.22551602159867

> <r_glide_res:A16_Eint>
-23.6643899028043

> <s_m_source_file>
ligprep_Nicaido_neutral.maegz

> <i_m_source_file_index>
7

> <i_lp_mmshare_version>
58128

> <i_f3d_flags>
0

> <s_lp_Force_Field>
S-OPLS

> <r_lp_Energy>
53.916069

> <b_lp_Chiralities_Consistent>
1

> <s_lp_Variant>
LY097964-2

> <s_epik_input>
W05IMl1jKG4xKXNbY0hdYzEvQyg9TlxPW0NIM10pQyg9TylbTkhdW0NAQEhdMkMoPU8pTihbQ0BIXTIzKUMoQyg9TylbT0hdKT1DKFtDSDJdUzMpW0NIM10=

> <s_epik_cmdline>
J2VwaWtfcHl0aG9uJywgJy1waHQnLCAnMC4wJywgJy1waCcsICc3LjQnLCAnLW50JywgJy1tYScsICc1MDAnLCAnLWltYWUnLCAnPGluZmlsZS5tYWU+JywgJy1vbWFlJywgJzxvdXRmaWxlLm1hZT4n

> <r_lp_tautomer_probability>
1

> <r_epik_Ionization_Penalty>
  0.0005

> <r_epik_Ionization_Penalty_Charging>
  0.0000

> <r_epik_Ionization_Penalty_Neutral>
  0.0005

> <r_epik_State_Penalty>
  0.0000

> <r_epik_Charging_Adjusted_Penalty>
1.64985111359435e-05

> <i_epik_Tot_Q>
-1

> <i_epik_Tot_abs_Q>
1

> <s_epik_Chemistry_Notes>
This compound has an imine and may undergo hydrolysis. This compound contains an acetal/aminal-like group ( X-CH(R)-Y where X, Y are N, S, or O) that may be acid/base labile, releasing an aldehyde.

> <s_m_subgroup_title>
glide-dock_Nicaido_neutral_pv1

> <s_m_subgroupid>
glide-dock_Nicaido_neutral_pv1

> <b_m_subgroup_collapsed>
0

$$$$
Carbenicillin
                    3D
 Schrodinger Suite 2022-2.
 42 44  0  0  1  0            999 V2000
  -28.5160  -19.3819  -24.5086 C   0  0  0  0  0  0
  -29.6226  -19.9601  -23.5988 C   0  0  0  0  0  0
  -29.6537  -21.5273  -23.5339 C   0  0  2  0  0  0
  -28.7984  -21.8445  -22.4037 N   0  0  0  0  0  0
  -28.6857  -21.0095  -21.2206 C   0  0  2  0  0  0
  -29.2346  -19.4102  -21.8920 S   0  0  0  0  0  0
  -27.2239  -21.4675  -21.1253 C   0  0  2  0  0  0
  -27.6384  -22.5357  -22.1570 C   0  0  0  0  0  0
  -27.1695  -23.5496  -22.6341 O   0  0  0  0  0  0
  -26.8580  -22.0244  -19.8269 N   0  0  0  0  0  0
  -25.6666  -22.5993  -19.5908 C   0  0  0  0  0  0
  -25.4599  -23.2426  -18.2050 C   0  0  2  0  0  0
  -24.1034  -22.8900  -17.5696 C   0  0  0  0  0  0
  -24.0838  -22.1901  -16.3430 C   0  0  0  0  0  0
  -22.8608  -21.8313  -15.7441 C   0  0  0  0  0  0
  -21.6420  -22.1742  -16.3568 C   0  0  0  0  0  0
  -21.6468  -22.8770  -17.5749 C   0  0  0  0  0  0
  -22.8691  -23.2292  -18.1781 C   0  0  0  0  0  0
  -25.6488  -24.7623  -18.4133 C   0  0  0  0  0  0
  -26.7696  -25.1494  -18.8134 O   0  5  0  0  0  0
  -24.7092  -25.5496  -18.1533 O   0  0  0  0  0  0
  -24.7838  -22.6464  -20.4516 O   0  0  0  0  0  0
  -29.3102  -22.2639  -24.8480 C   0  0  0  0  0  0
  -28.1162  -22.3495  -25.2133 O   0  5  0  0  0  0
  -30.2464  -22.7495  -25.5212 O   0  0  0  0  0  0
  -30.9880  -19.3973  -24.0281 C   0  0  0  0  0  0
  -28.6912  -19.6033  -25.5613 H   0  0  0  0  0  0
  -28.4590  -18.2968  -24.4156 H   0  0  0  0  0  0
  -27.5354  -19.7773  -24.2417 H   0  0  0  0  0  0
  -30.6514  -21.8517  -23.2340 H   0  0  0  0  0  0
  -29.3284  -21.3408  -20.4009 H   0  0  0  0  0  0
  -26.5285  -20.7154  -21.5018 H   0  0  0  0  0  0
  -27.5522  -22.0055  -19.0925 H   0  0  0  0  0  0
  -26.2557  -22.9101  -17.5362 H   0  0  0  0  0  0
  -25.0099  -21.9172  -15.8560 H   0  0  0  0  0  0
  -22.8596  -21.2848  -14.8139 H   0  0  0  0  0  0
  -20.7074  -21.8921  -15.8953 H   0  0  0  0  0  0
  -20.7146  -23.1380  -18.0528 H   0  0  0  0  0  0
  -22.8585  -23.7669  -19.1146 H   0  0  0  0  0  0
  -31.2533  -19.7261  -25.0329 H   0  0  0  0  0  0
  -31.7794  -19.7203  -23.3514 H   0  0  0  0  0  0
  -30.9830  -18.3064  -24.0248 H   0  0  0  0  0  0
  1  2  1  0  0  0
  1 27  1  0  0  0
  1 28  1  0  0  0
  1 29  1  0  0  0
  2  6  1  0  0  0
  2  3  1  0  0  0
  2 26  1  0  0  0
  3  4  1  0  0  0
  3 23  1  0  0  0
  3 30  1  0  0  0
  4  8  1  0  0  0
  4  5  1  0  0  0
  5  6  1  0  0  0
  5  7  1  0  0  0
  5 31  1  0  0  0
  7  8  1  0  0  0
  7 10  1  0  0  0
  7 32  1  0  0  0
  8  9  2  0  0  0
 10 11  1  0  0  0
 10 33  1  0  0  0
 11 12  1  0  0  0
 11 22  2  0  0  0
 12 13  1  0  0  0
 12 19  1  0  0  0
 12 34  1  0  0  0
 13 18  1  0  0  0
 13 14  2  0  0  0
 14 15  1  0  0  0
 14 35  1  0  0  0
 15 16  2  0  0  0
 15 36  1  0  0  0
 16 17  1  0  0  0
 16 37  1  0  0  0
 17 18  2  0  0  0
 17 38  1  0  0  0
 18 39  1  0  0  0
 19 20  1  0  0  0
 19 21  2  0  0  0
 23 24  1  0  0  0
 23 25  2  0  0  0
 26 40  1  0  0  0
 26 41  1  0  0  0
 26 42  1  0  0  0
M  CHG  2  20  -1  24  -1
M  END
> <s_m_entry_id>
27603

> <s_m_entry_name>
data_maestro.24

> <s_m_Source_Path>
C:\Users\olshana1\Git\GramNeg-Accumulation\Gram Negative Permeation - OmpF

> <s_m_Source_File>
data_maestro.csv

> <i_m_Source_File_Index>
24

> <s_m_job_name>
glide-dock_Nicaido_neutral

> <s_i_glide_gridfile>
3POX-grid

> <i_i_glide_lignum>
31

> <i_i_glide_rotatable_bonds>
6

> <r_i_docking_score>
-4.49220567644915

> <r_i_glide_ligand_efficiency>
-0.17277714140189

> <r_i_glide_ligand_efficiency_sa>
-0.511851601557877

> <r_i_glide_ligand_efficiency_ln>
-1.054979762985

> <r_i_glide_gscore>
-4.49220567644915

> <r_i_glide_lipo>
0

> <r_i_glide_hbond>
-0.905349889227644

> <r_i_glide_metal>
0

> <r_i_glide_rewards>
-0.84280369504757

> <r_i_glide_evdw>
-21.272647857666

> <r_i_glide_ecoul>
-10.8767280578613

> <r_i_glide_erotb>
0.409918473255716

> <r_i_glide_esite>
-0.458828963867152

> <r_i_glide_emodel>
-57.122466164935

> <r_i_glide_energy>
-32.1493759155273

> <r_i_glide_einternal>
1.35902094841003

> <i_i_glide_confnum>
5

> <i_i_glide_posenum>
109

> <r_i_glide_eff_state_penalty>
0

> <r_glide_res:A132_vdw>
-1.18072515438965

> <r_glide_res:A132_coul>
-69.8066956430423

> <r_glide_res:A132_hbond>
-0.0550116133549336

> <r_glide_res:A132_dist>
2.29666085435915

> <r_glide_res:A132_Eint>
-71.0424324107869

> <r_glide_res:A117_vdw>
-2.74894100158231

> <r_glide_res:A117_coul>
40.4123085750018

> <r_glide_res:A117_hbond>
0

> <r_glide_res:A117_dist>
2.43910340795845

> <r_glide_res:A117_Eint>
37.6633675734195

> <r_glide_res:A113_vdw>
-2.37689435253743

> <r_glide_res:A113_coul>
40.0740504617997

> <r_glide_res:A113_hbond>
0

> <r_glide_res:A113_dist>
2.75837213617913

> <r_glide_res:A113_Eint>
37.6971561092622

> <r_glide_res:A82_vdw>
-1.73393803500332

> <r_glide_res:A82_coul>
-64.404263056574

> <r_glide_res:A82_hbond>
-0.16

> <r_glide_res:A82_dist>
1.98853079985552

> <r_glide_res:A82_Eint>
-66.2982010915773

> <r_glide_res:A42_vdw>
3.41839975386183

> <r_glide_res:A42_coul>
-77.5883484803926

> <r_glide_res:A42_hbond>
-0.53033827587271

> <r_glide_res:A42_dist>
1.71081184314284

> <r_glide_res:A42_Eint>
-74.7002870024035

> <r_glide_res:A16_vdw>
-0.811978496878308

> <r_glide_res:A16_coul>
-50.1777301570629

> <r_glide_res:A16_hbond>
0

> <r_glide_res:A16_dist>
3.04586071357064

> <r_glide_res:A16_Eint>
-50.9897086539412

> <s_m_source_file>
ligprep_Nicaido_neutral.maegz

> <i_m_source_file_index>
24

> <i_lp_mmshare_version>
58128

> <i_f3d_flags>
0

> <s_lp_Force_Field>
S-OPLS

> <r_lp_Energy>
37.112724

> <b_lp_Chiralities_Consistent>
1

> <s_lp_Variant>
Carbenicillin-1

> <s_epik_input>
W09IXUMoPU8pW0NAQEhdMUMoW0NIM10pKFtDSDNdKVNbQ0BASF0oTjEyKVtDQEhdKEMyPU8pW05IXUMoPU8pW0NAQEhdKEMoPU8pW09IXSljM1tjSF1bY0hdW2NIXVtjSF1bY0hdMw==

> <s_epik_cmdline>
J2VwaWtfcHl0aG9uJywgJy1waHQnLCAnMC4wJywgJy1waCcsICc3LjQnLCAnLW50JywgJy1tYScsICc1MDAnLCAnLWltYWUnLCAnPGluZmlsZS5tYWU+JywgJy1vbWFlJywgJzxvdXRmaWxlLm1hZT4n

> <r_lp_tautomer_probability>
1

> <r_epik_Ionization_Penalty>
  0.0000

> <r_epik_Ionization_Penalty_Charging>
  0.0000

> <r_epik_Ionization_Penalty_Neutral>
  0.0000

> <r_epik_State_Penalty>
  0.0000

> <r_epik_Charging_Adjusted_Penalty>
4.98035685666923e-05

> <i_epik_Tot_Q>
-2

> <i_epik_Tot_abs_Q>
2

> <s_epik_Chemistry_Notes>
This compound contains an acetal/aminal-like group ( X-CH(R)-Y where X, Y are N, S, or O) that may be acid/base labile, releasing an aldehyde.

> <s_m_subgroup_title>
glide-dock_Nicaido_neutral_pv1

> <s_m_subgroupid>
glide-dock_Nicaido_neutral_pv1

> <b_m_subgroup_collapsed>
0

$$$$
Ceftazidime
                    3D
 Schrodinger Suite 2022-2.
 58 61  0  0  1  0            999 V2000
  -19.6018  -23.4743  -17.6408 C   0  0  0  0  0  0
  -20.8337  -24.3014  -18.0510 C   0  0  0  0  0  0
  -21.0803  -24.1285  -19.5706 C   0  0  0  0  0  0
  -20.5350  -25.7865  -17.7348 C   0  0  0  0  0  0
  -19.6429  -26.3495  -18.4134 O   0  5  0  0  0  0
  -21.1689  -26.3495  -16.8134 O   0  0  0  0  0  0
  -21.8935  -23.7499  -17.2484 O   0  0  0  0  0  0
  -23.1592  -24.2585  -17.6144 N   0  0  0  0  0  0
  -23.9997  -23.3327  -17.8598 C   0  0  0  0  0  0
  -25.4221  -23.6691  -18.2782 C   0  0  0  0  0  0
  -26.2037  -22.5923  -18.4889 N   0  0  0  0  0  0
  -27.4790  -22.5321  -19.2039 C   0  0  1  0  0  0
  -27.6189  -21.1886  -19.9505 C   0  0  2  0  0  0
  -27.6328  -21.9355  -21.1980 N   0  0  0  0  0  0
  -27.5952  -21.3658  -22.4893 C   0  0  0  0  0  0
  -28.0128  -22.3582  -23.6688 C   0  0  0  0  0  0
  -27.5690  -22.1269  -24.8134 O   0  5  0  0  0  0
  -28.7420  -23.3372  -23.3851 O   0  0  0  0  0  0
  -27.2450  -20.0552  -22.6601 C   0  0  0  0  0  0
  -27.2693  -19.2930  -23.9964 C   0  0  0  0  0  0
  -28.6214  -18.8266  -24.4066 N   0  3  0  0  0  0
  -29.6789  -18.7939  -23.5455 C   0  0  0  0  0  0
  -30.9459  -18.3492  -23.9741 C   0  0  0  0  0  0
  -31.1146  -17.9327  -25.3076 C   0  0  0  0  0  0
  -30.0059  -17.9496  -26.1745 C   0  0  0  0  0  0
  -28.7638  -18.4045  -25.6891 C   0  0  0  0  0  0
  -26.8047  -19.1496  -21.5047 C   0  0  0  0  0  0
  -26.2552  -19.9995  -20.0211 S   0  0  0  0  0  0
  -27.4330  -23.1640  -20.6138 C   0  0  0  0  0  0
  -27.1689  -24.2439  -21.0935 O   0  0  0  0  0  0
  -25.7841  -24.8338  -18.4675 O   0  0  0  0  0  0
  -23.6517  -21.8834  -17.8750 C   0  0  0  0  0  0
  -23.9998  -21.0317  -16.8526 C   0  0  0  0  0  0
  -23.5675  -19.3785  -17.2134 S   0  0  0  0  0  0
  -22.8873  -19.9252  -18.7329 C   0  0  0  0  0  0
  -22.2983  -19.0485  -19.6239 N   0  0  0  0  0  0
  -23.0143  -21.2339  -18.9397 N   0  0  0  0  0  0
  -18.7080  -23.7775  -18.1876 H   0  0  0  0  0  0
  -19.7637  -22.4143  -17.8397 H   0  0  0  0  0  0
  -19.3926  -23.5764  -16.5753 H   0  0  0  0  0  0
  -20.2139  -24.4426  -20.1536 H   0  0  0  0  0  0
  -21.9307  -24.7156  -19.9181 H   0  0  0  0  0  0
  -21.2697  -23.0862  -19.8224 H   0  0  0  0  0  0
  -25.8026  -21.6865  -18.2845 H   0  0  0  0  0  0
  -28.3524  -22.7766  -18.5975 H   0  0  0  0  0  0
  -28.5749  -20.6920  -19.7678 H   0  0  0  0  0  0
  -26.6289  -18.4096  -23.9807 H   0  0  0  0  0  0
  -26.8622  -19.8894  -24.8084 H   0  0  0  0  0  0
  -29.5168  -19.1027  -22.5249 H   0  0  0  0  0  0
  -31.7717  -18.3066  -23.2769 H   0  0  0  0  0  0
  -32.0722  -17.5652  -25.6483 H   0  0  0  0  0  0
  -30.0947  -17.5775  -27.1851 H   0  0  0  0  0  0
  -27.8681  -18.4075  -26.2933 H   0  0  0  0  0  0
  -25.9690  -18.5191  -21.8131 H   0  0  0  0  0  0
  -27.6330  -18.5025  -21.2133 H   0  0  0  0  0  0
  -24.5065  -21.2676  -15.9267 H   0  0  0  0  0  0
  -22.0970  -19.3499  -20.5657 H   0  0  0  0  0  0
  -22.3917  -18.0525  -19.4831 H   0  0  0  0  0  0
  1  2  1  0  0  0
  1 38  1  0  0  0
  1 39  1  0  0  0
  1 40  1  0  0  0
  2  3  1  0  0  0
  2  4  1  0  0  0
  2  7  1  0  0  0
  3 41  1  0  0  0
  3 42  1  0  0  0
  3 43  1  0  0  0
  4  5  1  0  0  0
  4  6  2  0  0  0
  7  8  1  0  0  0
  8  9  2  3  0  0
  9 10  1  0  0  0
  9 32  1  0  0  0
 10 11  1  0  0  0
 10 31  2  0  0  0
 11 12  1  0  0  0
 11 44  1  0  0  0
 12 29  1  0  0  0
 12 13  1  0  0  0
 12 45  1  0  0  0
 13 28  1  0  0  0
 13 14  1  0  0  0
 13 46  1  0  0  0
 14 15  1  0  0  0
 14 29  1  0  0  0
 15 16  1  0  0  0
 15 19  2  0  0  0
 16 17  1  0  0  0
 16 18  2  0  0  0
 19 20  1  0  0  0
 19 27  1  0  0  0
 20 21  1  0  0  0
 20 47  1  0  0  0
 20 48  1  0  0  0
 21 26  1  0  0  0
 21 22  2  0  0  0
 22 23  1  0  0  0
 22 49  1  0  0  0
 23 24  2  0  0  0
 23 50  1  0  0  0
 24 25  1  0  0  0
 24 51  1  0  0  0
 25 26  2  0  0  0
 25 52  1  0  0  0
 26 53  1  0  0  0
 27 28  1  0  0  0
 27 54  1  0  0  0
 27 55  1  0  0  0
 29 30  2  0  0  0
 32 37  1  0  0  0
 32 33  2  0  0  0
 33 34  1  0  0  0
 33 56  1  0  0  0
 34 35  1  0  0  0
 35 36  1  0  0  0
 35 37  2  0  0  0
 36 57  1  0  0  0
 36 58  1  0  0  0
M  CHG  3   5  -1  17  -1  21   1
M  END
> <s_m_entry_id>
27604

> <s_m_entry_name>
data_maestro.30

> <s_m_Source_Path>
C:\Users\olshana1\Git\GramNeg-Accumulation\Gram Negative Permeation - OmpF

> <s_m_Source_File>
data_maestro.csv

> <i_m_Source_File_Index>
30

> <s_m_job_name>
glide-dock_Nicaido_neutral

> <s_i_glide_gridfile>
3POX-grid

> <i_i_glide_lignum>
38

> <i_i_glide_rotatable_bonds>
10

> <r_i_docking_score>
-4.49072226672926

> <r_i_glide_ligand_efficiency>
-0.121370872073764

> <r_i_glide_ligand_efficiency_sa>
-0.404434671590727

> <r_i_glide_ligand_efficiency_ln>
-0.973932382186774

> <r_i_glide_gscore>
-4.49072226672926

> <r_i_glide_lipo>
0

> <r_i_glide_hbond>
-0.881935504004338

> <r_i_glide_metal>
0

> <r_i_glide_rewards>
1.31148281910561

> <r_i_glide_evdw>
-31.4345188140869

> <r_i_glide_ecoul>
-21.8257522583008

> <r_i_glide_erotb>
0.556495996469625

> <r_i_glide_esite>
-0.631176798850693

> <r_i_glide_emodel>
-76.7958736142706

> <r_i_glide_energy>
-53.2602710723877

> <r_i_glide_einternal>
11.5502691268921

> <i_i_glide_confnum>
269

> <i_i_glide_posenum>
56

> <r_i_glide_eff_state_penalty>
0

> <r_glide_res:A132_vdw>
1.43894058811958

> <r_glide_res:A132_coul>
-43.4319811589162

> <r_glide_res:A132_hbond>
-0.222045067937788

> <r_glide_res:A132_dist>
1.89662056121414

> <r_glide_res:A132_Eint>
-42.2150856387344

> <r_glide_res:A117_vdw>
-1.85223938422953

> <r_glide_res:A117_coul>
-9.80605848462932

> <r_glide_res:A117_hbond>
0

> <r_glide_res:A117_dist>
2.24144174588933

> <r_glide_res:A117_Eint>
-11.6582978688588

> <r_glide_res:A113_vdw>
-2.39768669677797

> <r_glide_res:A113_coul>
5.55864699938685

> <r_glide_res:A113_hbond>
0

> <r_glide_res:A113_dist>
2.69097724111091

> <r_glide_res:A113_Eint>
3.16096030260888

> <r_glide_res:A82_vdw>
-1.93925670720178

> <r_glide_res:A82_coul>
-40.5156243477119

> <r_glide_res:A82_hbond>
-0.0207376094428169

> <r_glide_res:A82_dist>
2.45410589668676

> <r_glide_res:A82_Eint>
-42.4756186643565

> <r_glide_res:A42_vdw>
0.0961164221300595

> <r_glide_res:A42_coul>
-35.6531312150331

> <r_glide_res:A42_hbond>
-0.2

> <r_glide_res:A42_dist>
1.75787546094161

> <r_glide_res:A42_Eint>
-35.757014792903

> <r_glide_res:A16_vdw>
-0.624033904953445

> <r_glide_res:A16_coul>
-8.02372046560415

> <r_glide_res:A16_hbond>
0

> <r_glide_res:A16_dist>
3.37592833477319

> <r_glide_res:A16_Eint>
-8.6477543705576

> <s_m_source_file>
ligprep_Nicaido_neutral.maegz

> <i_m_source_file_index>
30

> <i_lp_mmshare_version>
58128

> <i_f3d_flags>
0

> <s_lp_Force_Field>
S-OPLS

> <r_lp_Energy>
86.633473

> <b_lp_Chiralities_Consistent>
1

> <s_lp_Variant>
Ceftazidime-1

> <s_epik_input>
W09IXUMoPU8pQyhbQ0gzXSkoW0NIM10pTy9OPUMoYzFbY0hdc2MobjEpW05IMl0pL0MoPU8pW05IXVtDQEBIXTJDKD1PKU4oW0NAQEhdMjMpQyhDKD1PKVtPSF0pPUMoW0NIMl1TMylbQ0gyXVtuK100W2NIXVtjSF1bY0hdW2NIXVtjSF00

> <s_epik_cmdline>
J2VwaWtfcHl0aG9uJywgJy1waHQnLCAnMC4wJywgJy1waCcsICc3LjQnLCAnLW50JywgJy1tYScsICc1MDAnLCAnLWltYWUnLCAnPGluZmlsZS5tYWU+JywgJy1vbWFlJywgJzxvdXRmaWxlLm1hZT4n

> <r_lp_tautomer_probability>
1

> <r_epik_Ionization_Penalty>
  0.0005

> <r_epik_Ionization_Penalty_Charging>
  0.0001

> <r_epik_Ionization_Penalty_Neutral>
  0.0005

> <r_epik_State_Penalty>
  0.0000

> <r_epik_Charging_Adjusted_Penalty>
5.84857251211915e-05

> <i_epik_Tot_Q>
-1

> <i_epik_Tot_abs_Q>
3

> <s_epik_Chemistry_Notes>
This compound has an imine and may undergo hydrolysis. This compound contains an acetal/aminal-like group ( X-CH(R)-Y where X, Y are N, S, or O) that may be acid/base labile, releasing an aldehyde.

> <s_m_subgroup_title>
glide-dock_Nicaido_neutral_pv1

> <s_m_subgroupid>
glide-dock_Nicaido_neutral_pv1

> <b_m_subgroup_collapsed>
0

$$$$
Moxalactam
                    3D
 Schrodinger Suite 2022-2.
 54 57  0  0  1  0            999 V2000
  -26.4954  -21.8774  -18.0302 C   0  0  0  0  0  0
  -25.7335  -23.1112  -18.0079 N   0  0  0  0  0  0
  -24.6084  -23.4532  -17.3629 C   0  0  0  0  0  0
  -23.7243  -22.3492  -16.3020 S   0  0  0  0  0  0
  -22.0028  -22.9271  -16.5071 C   0  0  0  0  0  0
  -21.5544  -23.1390  -17.9548 C   0  0  0  0  0  0
  -21.0605  -24.2912  -18.4903 C   0  0  0  0  0  0
  -20.8082  -25.6542  -17.7304 C   0  0  0  0  0  0
  -21.5657  -25.9495  -16.7800 O   0  5  0  0  0  0
  -19.8429  -26.3490  -18.1262 O   0  0  0  0  0  0
  -20.6868  -24.2577  -19.8440 N   0  0  0  0  0  0
  -20.5161  -22.9923  -20.5375 C   0  0  2  0  0  0
  -21.6475  -22.1991  -20.2201 O   0  0  0  0  0  0
  -21.6879  -21.8880  -18.8312 C   0  0  0  0  0  0
  -20.5334  -23.7932  -21.8565 C   0  0  1  0  0  0
  -20.4777  -25.0631  -20.9571 C   0  0  0  0  0  0
  -20.3860  -26.2625  -21.1195 O   0  0  0  0  0  0
  -21.7387  -23.6205  -22.6856 N   0  0  0  0  0  0
  -23.0221  -23.9558  -22.4488 C   0  0  0  0  0  0
  -24.0213  -23.7500  -23.6025 C   0  0  2  0  0  0
  -23.9690  -25.0533  -24.4399 C   0  0  0  0  0  0
  -23.5536  -25.0236  -25.6134 O   0  5  0  0  0  0
  -24.3682  -26.1121  -23.9049 O   0  0  0  0  0  0
  -23.7825  -22.4431  -24.3953 C   0  0  0  0  0  0
  -22.7200  -22.2696  -25.3211 C   0  0  0  0  0  0
  -22.5255  -21.0385  -25.9788 C   0  0  0  0  0  0
  -23.3775  -19.9508  -25.7121 C   0  0  0  0  0  0
  -23.1692  -18.7497  -26.3282 O   0  0  0  0  0  0
  -24.4366  -20.1071  -24.7979 C   0  0  0  0  0  0
  -24.6360  -21.3425  -24.1483 C   0  0  0  0  0  0
  -23.4235  -24.4360  -21.3879 O   0  0  0  0  0  0
  -19.3268  -23.6686  -22.6062 O   0  0  0  0  0  0
  -19.1749  -22.4394  -23.3056 C   0  0  0  0  0  0
  -24.3037  -24.7210  -17.6136 N   0  0  0  0  0  0
  -25.3074  -25.1479  -18.4544 N   0  0  0  0  0  0
  -26.1539  -24.1941  -18.7079 N   0  0  0  0  0  0
  -25.8647  -21.0318  -17.7551 H   0  0  0  0  0  0
  -27.3208  -21.9481  -17.3210 H   0  0  0  0  0  0
  -26.8987  -21.7026  -19.0280 H   0  0  0  0  0  0
  -21.3527  -22.1717  -16.0658 H   0  0  0  0  0  0
  -21.8786  -23.8057  -15.8861 H   0  0  0  0  0  0
  -19.5581  -22.5235  -20.3029 H   0  0  0  0  0  0
  -22.6329  -21.3790  -18.6489 H   0  0  0  0  0  0
  -20.8925  -21.1857  -18.5791 H   0  0  0  0  0  0
  -21.5800  -23.1580  -23.5680 H   0  0  0  0  0  0
  -25.0199  -23.7014  -23.1666 H   0  0  0  0  0  0
  -22.0366  -23.0767  -25.5396 H   0  0  0  0  0  0
  -21.7124  -20.9259  -26.6809 H   0  0  0  0  0  0
  -23.7668  -18.0623  -26.0117 H   0  0  0  0  0  0
  -25.0913  -19.2735  -24.5828 H   0  0  0  0  0  0
  -25.4434  -21.4297  -23.4359 H   0  0  0  0  0  0
  -18.1860  -22.4029  -23.7621 H   0  0  0  0  0  0
  -19.2640  -21.5833  -22.6361 H   0  0  0  0  0  0
  -19.9076  -22.3346  -24.1060 H   0  0  0  0  0  0
  1  2  1  0  0  0
  1 37  1  0  0  0
  1 38  1  0  0  0
  1 39  1  0  0  0
  2 36  1  0  0  0
  2  3  1  0  0  0
  3  4  1  0  0  0
  3 34  2  0  0  0
  4  5  1  0  0  0
  5  6  1  0  0  0
  5 40  1  0  0  0
  5 41  1  0  0  0
  6 14  1  0  0  0
  6  7  2  0  0  0
  7  8  1  0  0  0
  7 11  1  0  0  0
  8  9  1  0  0  0
  8 10  2  0  0  0
 11 16  1  0  0  0
 11 12  1  0  0  0
 12 13  1  0  0  0
 12 15  1  0  0  0
 12 42  1  0  0  0
 13 14  1  0  0  0
 14 43  1  0  0  0
 14 44  1  0  0  0
 15 16  1  0  0  0
 15 18  1  0  0  0
 15 32  1  0  0  0
 16 17  2  0  0  0
 18 19  1  0  0  0
 18 45  1  0  0  0
 19 20  1  0  0  0
 19 31  2  0  0  0
 20 21  1  0  0  0
 20 24  1  0  0  0
 20 46  1  0  0  0
 21 22  1  0  0  0
 21 23  2  0  0  0
 24 30  1  0  0  0
 24 25  2  0  0  0
 25 26  1  0  0  0
 25 47  1  0  0  0
 26 27  2  0  0  0
 26 48  1  0  0  0
 27 28  1  0  0  0
 27 29  1  0  0  0
 28 49  1  0  0  0
 29 30  2  0  0  0
 29 50  1  0  0  0
 30 51  1  0  0  0
 32 33  1  0  0  0
 33 52  1  0  0  0
 33 53  1  0  0  0
 33 54  1  0  0  0
 34 35  1  0  0  0
 35 36  2  0  0  0
M  CHG  2   9  -1  22  -1
M  END
> <s_m_entry_id>
27605

> <s_m_entry_name>
data_maestro.20

> <s_m_Source_Path>
C:\Users\olshana1\Git\GramNeg-Accumulation\Gram Negative Permeation - OmpF

> <s_m_Source_File>
data_maestro.csv

> <i_m_Source_File_Index>
20

> <s_m_job_name>
glide-dock_Nicaido_neutral

> <s_i_glide_gridfile>
3POX-grid

> <i_i_glide_lignum>
25

> <i_i_glide_rotatable_bonds>
11

> <r_i_docking_score>
-4.48198886437862

> <r_i_glide_ligand_efficiency>
-0.124499690677184

> <r_i_glide_ligand_efficiency_sa>
-0.411088920634898

> <r_i_glide_ligand_efficiency_ln>
-0.977848880861898

> <r_i_glide_gscore>
-4.48198886437862

> <r_i_glide_lipo>
0

> <r_i_glide_hbond>
-0.658304187069528

> <r_i_glide_metal>
0

> <r_i_glide_rewards>
0.00013228567417888

> <r_i_glide_evdw>
-31.5316867828369

> <r_i_glide_ecoul>
-13.8567962646484

> <r_i_glide_erotb>
0.534860792752126

> <r_i_glide_esite>
-0.703573976896289

> <r_i_glide_emodel>
-70.2522585729473

> <r_i_glide_energy>
-45.3884830474854

> <r_i_glide_einternal>
13.2016849517822

> <i_i_glide_confnum>
22

> <i_i_glide_posenum>
225

> <r_i_glide_eff_state_penalty>
0

> <r_glide_res:A132_vdw>
-2.61532798093571

> <r_glide_res:A132_coul>
-60.8484329459561

> <r_glide_res:A132_hbond>
0

> <r_glide_res:A132_dist>
2.60350157039071

> <r_glide_res:A132_Eint>
-63.4637609268918

> <r_glide_res:A117_vdw>
0.875758609984523

> <r_glide_res:A117_coul>
18.795494227029

> <r_glide_res:A117_hbond>
-0.16

> <r_glide_res:A117_dist>
1.65077813862361

> <r_glide_res:A117_Eint>
19.5112528370135

> <r_glide_res:A113_vdw>
-0.416145668654254

> <r_glide_res:A113_coul>
28.1419429461045

> <r_glide_res:A113_hbond>
0

> <r_glide_res:A113_dist>
4.01215882766089

> <r_glide_res:A113_Eint>
27.7257972774503

> <r_glide_res:A82_vdw>
-0.141932698654419

> <r_glide_res:A82_coul>
-58.7196922068818

> <r_glide_res:A82_hbond>
-0.125711363591135

> <r_glide_res:A82_dist>
1.98755896222986

> <r_glide_res:A82_Eint>
-58.9873362691273

> <r_glide_res:A42_vdw>
-1.72751914242061

> <r_glide_res:A42_coul>
-48.4224878547196

> <r_glide_res:A42_hbond>
0

> <r_glide_res:A42_dist>
2.79660763813101

> <r_glide_res:A42_Eint>
-50.1500069971402

> <r_glide_res:A16_vdw>
-0.0890899194962507

> <r_glide_res:A16_coul>
-27.2780820538049

> <r_glide_res:A16_hbond>
0

> <r_glide_res:A16_dist>
6.56696438490517

> <r_glide_res:A16_Eint>
-27.3671719733012

> <s_m_source_file>
ligprep_Nicaido_neutral.maegz

> <i_m_source_file_index>
20

> <i_lp_mmshare_version>
58128

> <i_f3d_flags>
0

> <s_lp_Force_Field>
S-OPLS

> <r_lp_Energy>
52.146636

> <b_lp_Chiralities_Consistent>
1

> <s_lp_Variant>
Moxalactam-1

> <s_epik_input>
bjFubmMobjFbQ0gzXSlTW0NIMl1DKD1DMkMoPU8pW09IXSlbQ0gyXU9bQ0BASF0oTjIzKVtDQF0oQzM9TykoT1tDSDNdKVtOSF1DKD1PKVtDQEhdKEMoPU8pW09IXSljNFtjSF1bY0hdYyhbT0hdKVtjSF1bY0hdNA==

> <s_epik_cmdline>
J2VwaWtfcHl0aG9uJywgJy1waHQnLCAnMC4wJywgJy1waCcsICc3LjQnLCAnLW50JywgJy1tYScsICc1MDAnLCAnLWltYWUnLCAnPGluZmlsZS5tYWU+JywgJy1vbWFlJywgJzxvdXRmaWxlLm1hZT4n

> <r_lp_tautomer_probability>
1

> <r_epik_Ionization_Penalty>
  0.0029

> <r_epik_Ionization_Penalty_Charging>
  0.0001

> <r_epik_Ionization_Penalty_Neutral>
  0.0029

> <r_epik_State_Penalty>
  0.0000

> <r_epik_Charging_Adjusted_Penalty>
5.78268703870383e-05

> <i_epik_Tot_Q>
-2

> <i_epik_Tot_abs_Q>
2

> <s_epik_Chemistry_Notes>
This compound contains an acetal/aminal-like group ( X-CH(R)-Y where X, Y are N, S, or O) that may be acid/base labile, releasing an aldehyde.

> <s_m_subgroup_title>
glide-dock_Nicaido_neutral_pv1

> <s_m_subgroupid>
glide-dock_Nicaido_neutral_pv1

> <b_m_subgroup_collapsed>
0

$$$$
Cephaloglycin
                    3D
 Schrodinger Suite 2022-2.
 46 48  0  0  1  0            999 V2000
  -32.7243  -24.9829  -23.2130 C   0  0  0  0  0  0
  -32.3900  -23.6986  -22.4675 C   0  0  0  0  0  0
  -31.3300  -23.8381  -21.6532 O   0  0  0  0  0  0
  -30.8862  -22.7450  -20.8538 C   0  0  0  0  0  0
  -30.0169  -21.7674  -21.6397 C   0  0  0  0  0  0
  -28.7977  -22.0827  -22.1340 C   0  0  0  0  0  0
  -28.2015  -21.1773  -23.0193 N   0  0  0  0  0  0
  -27.9515  -19.8248  -22.5556 C   0  0  1  0  0  0
  -27.1948  -19.5989  -23.8888 C   0  0  2  0  0  0
  -27.3227  -21.1153  -24.0823 C   0  0  0  0  0  0
  -26.8411  -21.9496  -24.8134 O   0  0  0  0  0  0
  -25.7947  -19.1496  -23.7912 N   0  0  0  0  0  0
  -24.7636  -19.6749  -23.1027 C   0  0  0  0  0  0
  -23.3994  -18.9812  -23.2709 C   0  0  2  0  0  0
  -22.6829  -19.7413  -24.3479 C   0  0  0  0  0  0
  -22.6592  -19.2614  -25.6794 C   0  0  0  0  0  0
  -21.9651  -19.9275  -26.7040 C   0  0  0  0  0  0
  -21.2590  -21.1042  -26.4134 C   0  0  0  0  0  0
  -21.2719  -21.6182  -25.1045 C   0  0  0  0  0  0
  -21.9793  -20.9436  -24.0886 C   0  0  0  0  0  0
  -22.6596  -18.9415  -22.0098 N   0  0  0  0  0  0
  -24.8676  -20.6467  -22.3512 O   0  0  0  0  0  0
  -29.5689  -19.0256  -22.1955 S   0  0  0  0  0  0
  -30.6991  -20.4473  -21.9924 C   0  0  0  0  0  0
  -28.0665  -23.4442  -21.8624 C   0  0  0  0  0  0
  -27.4384  -23.9496  -22.8134 O   0  5  0  0  0  0
  -28.1682  -23.9496  -20.7239 O   0  0  0  0  0  0
  -33.0479  -22.6736  -22.6400 O   0  0  0  0  0  0
  -33.6922  -24.8934  -23.7065 H   0  0  0  0  0  0
  -31.9679  -25.1906  -23.9685 H   0  0  0  0  0  0
  -32.7690  -25.8206  -22.5175 H   0  0  0  0  0  0
  -30.3202  -23.1411  -20.0134 H   0  0  0  0  0  0
  -31.7382  -22.2256  -20.4134 H   0  0  0  0  0  0
  -27.3104  -19.8182  -21.6717 H   0  0  0  0  0  0
  -27.7800  -19.0059  -24.5925 H   0  0  0  0  0  0
  -25.5716  -18.3223  -24.3393 H   0  0  0  0  0  0
  -23.5689  -17.9499  -23.5845 H   0  0  0  0  0  0
  -23.1689  -18.3496  -25.9310 H   0  0  0  0  0  0
  -21.9610  -19.5229  -27.7062 H   0  0  0  0  0  0
  -20.7055  -21.5968  -27.1967 H   0  0  0  0  0  0
  -20.7289  -22.5226  -24.8760 H   0  0  0  0  0  0
  -21.9706  -21.3449  -23.0858 H   0  0  0  0  0  0
  -22.5003  -17.9875  -21.7194 H   0  0  0  0  0  0
  -23.2145  -19.3655  -21.2782 H   0  0  0  0  0  0
  -31.2675  -20.5834  -22.9119 H   0  0  0  0  0  0
  -31.4132  -20.1781  -21.2134 H   0  0  0  0  0  0
  1  2  1  0  0  0
  1 29  1  0  0  0
  1 30  1  0  0  0
  1 31  1  0  0  0
  2  3  1  0  0  0
  2 28  2  0  0  0
  3  4  1  0  0  0
  4  5  1  0  0  0
  4 32  1  0  0  0
  4 33  1  0  0  0
  5 24  1  0  0  0
  5  6  2  0  0  0
  6  7  1  0  0  0
  6 25  1  0  0  0
  7 10  1  0  0  0
  7  8  1  0  0  0
  8  9  1  0  0  0
  8 23  1  0  0  0
  8 34  1  0  0  0
  9 10  1  0  0  0
  9 12  1  0  0  0
  9 35  1  0  0  0
 10 11  2  0  0  0
 12 13  1  0  0  0
 12 36  1  0  0  0
 13 14  1  0  0  0
 13 22  2  0  0  0
 14 15  1  0  0  0
 14 21  1  0  0  0
 14 37  1  0  0  0
 15 20  1  0  0  0
 15 16  2  0  0  0
 16 17  1  0  0  0
 16 38  1  0  0  0
 17 18  2  0  0  0
 17 39  1  0  0  0
 18 19  1  0  0  0
 18 40  1  0  0  0
 19 20  2  0  0  0
 19 41  1  0  0  0
 20 42  1  0  0  0
 21 43  1  0  0  0
 21 44  1  0  0  0
 23 24  1  0  0  0
 24 45  1  0  0  0
 24 46  1  0  0  0
 25 26  1  0  0  0
 25 27  2  0  0  0
M  CHG  1  26  -1
M  END
> <s_m_entry_id>
27606

> <s_m_entry_name>
data_maestro.16

> <s_m_Source_Path>
C:\Users\olshana1\Git\GramNeg-Accumulation\Gram Negative Permeation - OmpF

> <s_m_Source_File>
data_maestro.csv

> <i_m_Source_File_Index>
16

> <s_m_job_name>
glide-dock_Nicaido_neutral

> <s_i_glide_gridfile>
3POX-grid

> <i_i_glide_lignum>
21

> <i_i_glide_rotatable_bonds>
8

> <r_i_docking_score>
-4.47106818685929

> <r_i_glide_ligand_efficiency>
-0.159681006673546

> <r_i_glide_ligand_efficiency_sa>
-0.484885583344315

> <r_i_glide_ligand_efficiency_ln>
-1.0320538137934

> <r_i_glide_gscore>
-4.58246818685929

> <r_i_glide_lipo>
-0.281811402711322

> <r_i_glide_hbond>
-0.706659577505252

> <r_i_glide_metal>
0

> <r_i_glide_rewards>
-0.65161080324724

> <r_i_glide_evdw>
-24.5653305053711

> <r_i_glide_ecoul>
-12.5803375244141

> <r_i_glide_erotb>
0.600502745111863

> <r_i_glide_esite>
-0.427571994576677

> <r_i_glide_emodel>
-58.8076950833556

> <r_i_glide_energy>
-37.1456680297852

> <r_i_glide_einternal>
6.71259212493896

> <i_i_glide_confnum>
85

> <i_i_glide_posenum>
42

> <r_i_glide_eff_state_penalty>
0.1114

> <r_glide_res:A132_vdw>
-0.00527884430421151

> <r_glide_res:A132_coul>
-48.2288859791616

> <r_glide_res:A132_hbond>
-0.2

> <r_glide_res:A132_dist>
1.7642113748369

> <r_glide_res:A132_Eint>
-48.4341648234658

> <r_glide_res:A117_vdw>
-4.16731939897498

> <r_glide_res:A117_coul>
6.17962660999379

> <r_glide_res:A117_hbond>
-0.16

> <r_glide_res:A117_dist>
2.04386043149764

> <r_glide_res:A117_Eint>
1.85230721101882

> <r_glide_res:A113_vdw>
-1.98137834199391

> <r_glide_res:A113_coul>
25.7009197502006

> <r_glide_res:A113_hbond>
0

> <r_glide_res:A113_dist>
2.33025830301699

> <r_glide_res:A113_Eint>
23.7195414082066

> <r_glide_res:A82_vdw>
2.444673640931

> <r_glide_res:A82_coul>
-50.3941712746102

> <r_glide_res:A82_hbond>
-0.186659577505251

> <r_glide_res:A82_dist>
1.5733191550105

> <r_glide_res:A82_Eint>
-48.1361572111844

> <r_glide_res:A42_vdw>
0.955525680029264

> <r_glide_res:A42_coul>
-38.2966602885595

> <r_glide_res:A42_hbond>
-0.16

> <r_glide_res:A42_dist>
1.70655302690226

> <r_glide_res:A42_Eint>
-37.5011346085302

> <r_glide_res:A16_vdw>
-0.312242545240165

> <r_glide_res:A16_coul>
-20.4240261511791

> <r_glide_res:A16_hbond>
0

> <r_glide_res:A16_dist>
4.83708638600955

> <r_glide_res:A16_Eint>
-20.7362686964193

> <s_m_source_file>
ligprep_Nicaido_neutral.maegz

> <i_m_source_file_index>
16

> <i_lp_mmshare_version>
58128

> <i_f3d_flags>
0

> <s_lp_Force_Field>
S-OPLS

> <r_lp_Energy>
48.658328

> <b_lp_Chiralities_Consistent>
1

> <s_lp_Variant>
Cephaloglycin-1

> <s_epik_input>
W0NIM11DKD1PKU9bQ0gyXUMoPUMxQyg9TylbT0hdKVtDSDJdU1tDQEBIXShOMTIpW0NASF0oQzI9TylbTkhdQyg9TylbQ0BASF0oW05IMl0pYzNbY0hdW2NIXVtjSF1bY0hdW2NIXTM=

> <s_epik_cmdline>
J2VwaWtfcHl0aG9uJywgJy1waHQnLCAnMC4wJywgJy1waCcsICc3LjQnLCAnLW50JywgJy1tYScsICc1MDAnLCAnLWltYWUnLCAnPGluZmlsZS5tYWU+JywgJy1vbWFlJywgJzxvdXRmaWxlLm1hZT4n

> <r_epik_Ionization_Penalty>
  0.1114

> <r_epik_Ionization_Penalty_Charging>
  0.0000

> <r_epik_Ionization_Penalty_Neutral>
  0.1114

> <r_epik_State_Penalty>
  0.1114

> <r_epik_Charging_Adjusted_Penalty>
0.111378695294398

> <i_epik_Tot_Q>
-1

> <i_epik_Tot_abs_Q>
1

> <s_epik_Chemistry_Notes>
This compound has an ester and may undergo hydrolysis at high or low pH. This compound contains an acetal/aminal-like group ( X-CH(R)-Y where X, Y are N, S, or O) that may be acid/base labile, releasing an aldehyde.

> <s_m_subgroup_title>
glide-dock_Nicaido_neutral_pv1

> <s_m_subgroupid>
glide-dock_Nicaido_neutral_pv1

> <b_m_subgroup_collapsed>
0

$$$$
Cefazolin
                    3D
 Schrodinger Suite 2022-2.
 42 45  0  0  1  0            999 V2000
  -20.3384  -18.7282  -22.4502 C   0  0  0  0  0  0
  -20.5465  -20.1283  -22.9178 C   0  0  0  0  0  0
  -21.1858  -21.0525  -22.1912 N   0  0  0  0  0  0
  -21.2691  -22.2706  -22.8514 N   0  0  0  0  0  0
  -20.7187  -22.2192  -24.0687 C   0  0  0  0  0  0
  -19.9691  -20.6954  -24.4780 S   0  0  0  0  0  0
  -20.7162  -23.5494  -25.2128 S   0  0  0  0  0  0
  -22.1684  -23.0953  -26.2287 C   0  0  0  0  0  0
  -23.3341  -22.5129  -25.4401 C   0  0  0  0  0  0
  -24.0577  -23.2300  -24.5367 C   0  0  0  0  0  0
  -24.9971  -22.6144  -23.6867 N   0  0  0  0  0  0
  -25.0650  -21.1718  -23.5163 C   0  0  2  0  0  0
  -26.2642  -21.3952  -22.5752 C   0  0  2  0  0  0
  -25.9600  -22.9081  -22.7341 C   0  0  0  0  0  0
  -26.3714  -23.9495  -22.2698 O   0  0  0  0  0  0
  -27.5571  -20.9117  -23.0896 N   0  0  0  0  0  0
  -28.3134  -21.3816  -24.0986 C   0  0  0  0  0  0
  -29.6392  -20.6538  -24.3354 C   0  0  0  0  0  0
  -30.6787  -21.5889  -24.7207 N   0  0  0  0  0  0
  -31.5578  -22.2770  -23.9895 C   0  0  0  0  0  0
  -32.2837  -23.0893  -24.7441 N   0  0  0  0  0  0
  -31.8063  -22.8512  -26.0212 N   0  0  0  0  0  0
  -30.8526  -21.9631  -26.0133 N   0  0  0  0  0  0
  -27.9995  -22.3394  -24.8131 O   0  0  0  0  0  0
  -25.1563  -20.4059  -25.1593 S   0  0  0  0  0  0
  -23.5632  -21.0271  -25.7351 C   0  0  0  0  0  0
  -23.8519  -24.7753  -24.3502 C   0  0  0  0  0  0
  -24.3689  -25.5200  -25.2140 O   0  5  0  0  0  0
  -23.1647  -25.1494  -23.3747 O   0  0  0  0  0  0
  -20.5227  -18.6495  -21.3787 H   0  0  0  0  0  0
  -19.3152  -18.4134  -22.6528 H   0  0  0  0  0  0
  -21.0198  -18.0565  -22.9717 H   0  0  0  0  0  0
  -22.4976  -23.9550  -26.8108 H   0  0  0  0  0  0
  -21.8349  -22.3494  -26.9508 H   0  0  0  0  0  0
  -24.1853  -20.8115  -22.9776 H   0  0  0  0  0  0
  -26.0524  -21.0112  -21.5767 H   0  0  0  0  0  0
  -27.9163  -20.0987  -22.6072 H   0  0  0  0  0  0
  -29.5118  -19.9085  -25.1213 H   0  0  0  0  0  0
  -29.9592  -20.1280  -23.4345 H   0  0  0  0  0  0
  -31.6477  -22.2025  -22.9155 H   0  0  0  0  0  0
  -22.7719  -20.4385  -25.2739 H   0  0  0  0  0  0
  -23.5173  -20.8450  -26.8092 H   0  0  0  0  0  0
  1  2  1  0  0  0
  1 30  1  0  0  0
  1 31  1  0  0  0
  1 32  1  0  0  0
  2  6  1  0  0  0
  2  3  2  0  0  0
  3  4  1  0  0  0
  4  5  2  0  0  0
  5  6  1  0  0  0
  5  7  1  0  0  0
  7  8  1  0  0  0
  8  9  1  0  0  0
  8 33  1  0  0  0
  8 34  1  0  0  0
  9 26  1  0  0  0
  9 10  2  0  0  0
 10 11  1  0  0  0
 10 27  1  0  0  0
 11 14  1  0  0  0
 11 12  1  0  0  0
 12 13  1  0  0  0
 12 25  1  0  0  0
 12 35  1  0  0  0
 13 14  1  0  0  0
 13 16  1  0  0  0
 13 36  1  0  0  0
 14 15  2  0  0  0
 16 17  1  0  0  0
 16 37  1  0  0  0
 17 18  1  0  0  0
 17 24  2  0  0  0
 18 19  1  0  0  0
 18 38  1  0  0  0
 18 39  1  0  0  0
 19 23  1  0  0  0
 19 20  1  0  0  0
 20 21  2  0  0  0
 20 40  1  0  0  0
 21 22  1  0  0  0
 22 23  2  0  0  0
 25 26  1  0  0  0
 26 41  1  0  0  0
 26 42  1  0  0  0
 27 28  1  0  0  0
 27 29  2  0  0  0
M  CHG  1  28  -1
M  END
> <s_m_entry_id>
27607

> <s_m_entry_name>
data_maestro.2

> <s_m_Source_Path>
C:\Users\olshana1\Git\GramNeg-Accumulation\Gram Negative Permeation - OmpF

> <s_m_Source_File>
data_maestro.csv

> <i_m_Source_File_Index>
2

> <s_m_job_name>
glide-dock_Nicaido_neutral

> <s_i_glide_gridfile>
3POX-grid

> <i_i_glide_lignum>
2

> <i_i_glide_rotatable_bonds>
8

> <r_i_docking_score>
-4.46914632460019

> <r_i_glide_ligand_efficiency>
-0.154108493951731

> <r_i_glide_ligand_efficiency_sa>
-0.47347011841757

> <r_i_glide_ligand_efficiency_ln>
-1.02332118056084

> <r_i_glide_gscore>
-4.46914632460019

> <r_i_glide_lipo>
0

> <r_i_glide_hbond>
-0.774963662768601

> <r_i_glide_metal>
0

> <r_i_glide_rewards>
-0.317026123660335

> <r_i_glide_evdw>
-24.7491302490234

> <r_i_glide_ecoul>
-13.6229906082153

> <r_i_glide_erotb>
0.585623573400065

> <r_i_glide_esite>
-0.681875007887845

> <r_i_glide_emodel>
-57.9136404848298

> <r_i_glide_energy>
-38.3721208572388

> <r_i_glide_einternal>
10.6930236816406

> <i_i_glide_confnum>
119

> <i_i_glide_posenum>
192

> <r_i_glide_eff_state_penalty>
0

> <r_glide_res:A132_vdw>
-1.3864494725231

> <r_glide_res:A132_coul>
-37.3478170583444

> <r_glide_res:A132_hbond>
-0.0536364233823769

> <r_glide_res:A132_dist>
2.27349695238626

> <r_glide_res:A132_Eint>
-38.7879029542498

> <r_glide_res:A117_vdw>
-2.42289516516129

> <r_glide_res:A117_coul>
14.7251708419048

> <r_glide_res:A117_hbond>
0

> <r_glide_res:A117_dist>
3.41178886646992

> <r_glide_res:A117_Eint>
12.3022756767435

> <r_glide_res:A113_vdw>
-0.469965217207082

> <r_glide_res:A113_coul>
11.1784232148429

> <r_glide_res:A113_hbond>
0

> <r_glide_res:A113_dist>
4.78978946381216

> <r_glide_res:A113_Eint>
10.7084579976358

> <r_glide_res:A82_vdw>
-2.44969234200863

> <r_glide_res:A82_coul>
-50.1579275473016

> <r_glide_res:A82_hbond>
-0.346463299629627

> <r_glide_res:A82_dist>
2.01289667000827

> <r_glide_res:A82_Eint>
-52.9540831889399

> <r_glide_res:A42_vdw>
-3.2999388234515

> <r_glide_res:A42_coul>
-46.589487308744

> <r_glide_res:A42_hbond>
-0.174863939756597

> <r_glide_res:A42_dist>
1.88923197834303

> <r_glide_res:A42_Eint>
-50.0642900719521

> <r_glide_res:A16_vdw>
-1.00218907752335

> <r_glide_res:A16_coul>
-25.4543816914772

> <r_glide_res:A16_hbond>
0

> <r_glide_res:A16_dist>
2.32241210195046

> <r_glide_res:A16_Eint>
-26.4565707690005

> <s_m_source_file>
ligprep_Nicaido_neutral.maegz

> <i_m_source_file_index>
2

> <i_lp_mmshare_version>
58128

> <i_f3d_flags>
0

> <s_lp_Force_Field>
S-OPLS

> <r_lp_Energy>
37.420105

> <b_lp_Chiralities_Consistent>
1

> <s_lp_Variant>
Cefazolin-1

> <s_epik_input>
W0NIM11jMW5uYyhzMSlTW0NIMl1DKD1DMkMoPU8pW09IXSlbQ0gyXVNbQ0BIXShOMjMpW0NASF0oQzM9TylbTkhdQyg9TylbQ0gyXW40W2NIXW5ubjQ=

> <s_epik_cmdline>
J2VwaWtfcHl0aG9uJywgJy1waHQnLCAnMC4wJywgJy1waCcsICc3LjQnLCAnLW50JywgJy1tYScsICc1MDAnLCAnLWltYWUnLCAnPGluZmlsZS5tYWU+JywgJy1vbWFlJywgJzxvdXRmaWxlLm1hZT4n

> <r_lp_tautomer_probability>
1

> <r_epik_Ionization_Penalty>
  0.0000

> <r_epik_Ionization_Penalty_Charging>
  0.0000

> <r_epik_Ionization_Penalty_Neutral>
  0.0000

> <r_epik_State_Penalty>
  0.0000

> <r_epik_Charging_Adjusted_Penalty>
8.33047029083912e-06

> <i_epik_Tot_Q>
-1

> <i_epik_Tot_abs_Q>
1

> <s_epik_Chemistry_Notes>
This compound contains an acetal/aminal-like group ( X-CH(R)-Y where X, Y are N, S, or O) that may be acid/base labile, releasing an aldehyde.

> <s_m_subgroup_title>
glide-dock_Nicaido_neutral_pv1

> <s_m_subgroupid>
glide-dock_Nicaido_neutral_pv1

> <b_m_subgroup_collapsed>
0

$$$$
Penicillin N
                    3D
 Schrodinger Suite 2022-2.
 44 45  0  0  1  0            999 V2000
  -21.6926  -21.9035  -19.4131 C   0  0  0  0  0  0
  -21.7792  -23.3930  -19.0313 C   0  0  0  0  0  0
  -20.5660  -24.1292  -19.6387 C   0  0  0  0  0  0
  -21.9183  -23.5223  -17.4721 C   0  0  2  0  0  0
  -21.2923  -24.7856  -16.8424 C   0  0  0  0  0  0
  -20.1176  -24.7040  -16.4131 O   0  5  0  0  0  0
  -21.9689  -25.8378  -16.8134 O   0  0  0  0  0  0
  -23.3553  -23.5090  -17.2761 N   0  0  0  0  0  0
  -24.3024  -24.1250  -18.1902 C   0  0  1  0  0  0
  -25.3490  -23.1000  -17.7119 C   0  0  2  0  0  0
  -25.7762  -22.1366  -18.7133 N   0  0  0  0  0  0
  -26.5827  -22.4278  -19.7426 C   0  0  0  0  0  0
  -27.1899  -21.2250  -20.4698 C   0  0  0  0  0  0
  -27.1118  -21.3601  -21.9966 C   0  0  0  0  0  0
  -27.6465  -20.1138  -22.7362 C   0  0  0  0  0  0
  -27.3946  -20.0982  -24.2660 C   0  0  2  0  0  0
  -27.6365  -18.7494  -24.8118 N   0  3  0  0  0  0
  -28.2470  -21.1492  -25.0141 C   0  0  0  0  0  0
  -29.1390  -20.7710  -25.8114 O   0  5  0  0  0  0
  -27.9688  -22.3506  -24.8135 O   0  0  0  0  0  0
  -26.8555  -23.5853  -20.0839 O   0  0  0  0  0  0
  -24.2358  -22.5722  -16.7939 C   0  0  0  0  0  0
  -24.0828  -21.6390  -16.0399 O   0  0  0  0  0  0
  -23.3320  -24.0763  -19.7412 S   0  0  0  0  0  0
  -20.7906  -21.4422  -19.0116 H   0  0  0  0  0  0
  -21.6759  -21.7700  -20.4951 H   0  0  0  0  0  0
  -22.5430  -21.3404  -19.0299 H   0  0  0  0  0  0
  -19.6309  -23.7938  -19.1896 H   0  0  0  0  0  0
  -20.6341  -25.2080  -19.5026 H   0  0  0  0  0  0
  -20.4963  -23.9494  -20.7128 H   0  0  0  0  0  0
  -21.4769  -22.6581  -16.9703 H   0  0  0  0  0  0
  -24.5557  -25.1487  -17.9114 H   0  0  0  0  0  0
  -26.1969  -23.5564  -17.2111 H   0  0  0  0  0  0
  -25.5988  -21.1645  -18.5053 H   0  0  0  0  0  0
  -26.6807  -20.3143  -20.1536 H   0  0  0  0  0  0
  -28.2273  -21.1221  -20.1539 H   0  0  0  0  0  0
  -27.6816  -22.2410  -22.2874 H   0  0  0  0  0  0
  -26.0782  -21.5425  -22.2901 H   0  0  0  0  0  0
  -27.1692  -19.2346  -22.2979 H   0  0  0  0  0  0
  -28.7134  -20.0003  -22.5297 H   0  0  0  0  0  0
  -26.3414  -20.3140  -24.4485 H   0  0  0  0  0  0
  -27.2872  -18.6824  -25.7548 H   0  0  0  0  0  0
  -28.6318  -18.5786  -24.8145 H   0  0  0  0  0  0
  -27.1722  -18.0573  -24.2378 H   0  0  0  0  0  0
  1  2  1  0  0  0
  1 25  1  0  0  0
  1 26  1  0  0  0
  1 27  1  0  0  0
  2 24  1  0  0  0
  2  3  1  0  0  0
  2  4  1  0  0  0
  3 28  1  0  0  0
  3 29  1  0  0  0
  3 30  1  0  0  0
  4  5  1  0  0  0
  4  8  1  0  0  0
  4 31  1  0  0  0
  5  6  1  0  0  0
  5  7  2  0  0  0
  8 22  1  0  0  0
  8  9  1  0  0  0
  9 10  1  0  0  0
  9 24  1  0  0  0
  9 32  1  0  0  0
 10 11  1  0  0  0
 10 22  1  0  0  0
 10 33  1  0  0  0
 11 12  1  0  0  0
 11 34  1  0  0  0
 12 13  1  0  0  0
 12 21  2  0  0  0
 13 14  1  0  0  0
 13 35  1  0  0  0
 13 36  1  0  0  0
 14 15  1  0  0  0
 14 37  1  0  0  0
 14 38  1  0  0  0
 15 16  1  0  0  0
 15 39  1  0  0  0
 15 40  1  0  0  0
 16 17  1  0  0  0
 16 18  1  0  0  0
 16 41  1  0  0  0
 17 42  1  0  0  0
 17 43  1  0  0  0
 17 44  1  0  0  0
 18 19  1  0  0  0
 18 20  2  0  0  0
 22 23  2  0  0  0
M  CHG  3   6  -1  17   1  19  -1
M  END
> <s_m_entry_id>
27608

> <s_m_entry_name>
data_maestro.26

> <s_m_Source_Path>
C:\Users\olshana1\Git\GramNeg-Accumulation\Gram Negative Permeation - OmpF

> <s_m_Source_File>
data_maestro.csv

> <i_m_Source_File_Index>
26

> <s_m_job_name>
glide-dock_Nicaido_neutral

> <s_i_glide_gridfile>
3POX-grid

> <i_i_glide_lignum>
33

> <i_i_glide_rotatable_bonds>
8

> <r_i_docking_score>
-4.46280441837594

> <r_i_glide_ligand_efficiency>
-0.185950184098998

> <r_i_glide_ligand_efficiency_sa>
-0.536373145662518

> <r_i_glide_ligand_efficiency_ln>
-1.06815388206817

> <r_i_glide_gscore>
-4.46280441837594

> <r_i_glide_lipo>
0

> <r_i_glide_hbond>
-0.480495396237596

> <r_i_glide_metal>
0

> <r_i_glide_rewards>
-0.951743315691992

> <r_i_glide_evdw>
-19.5619487762451

> <r_i_glide_ecoul>
-16.710521697998

> <r_i_glide_erotb>
0.894795809723686

> <r_i_glide_esite>
-0.440685822658079

> <r_i_glide_emodel>
-59.8473876767109

> <r_i_glide_energy>
-36.2724704742432

> <r_i_glide_einternal>
5.9028525352478

> <i_i_glide_confnum>
7

> <i_i_glide_posenum>
154

> <r_i_glide_eff_state_penalty>
0

> <r_glide_res:A132_vdw>
-1.89552730654996

> <r_glide_res:A132_coul>
-33.0068201806183

> <r_glide_res:A132_hbond>
-0.0147874166307992

> <r_glide_res:A132_dist>
2.463031458423

> <r_glide_res:A132_Eint>
-34.9171349037991

> <r_glide_res:A117_vdw>
-1.97435278884863

> <r_glide_res:A117_coul>
-13.9578421009568

> <r_glide_res:A117_hbond>
0

> <r_glide_res:A117_dist>
2.12782759569386

> <r_glide_res:A117_Eint>
-15.9321948898054

> <r_glide_res:A113_vdw>
-0.848692709284478

> <r_glide_res:A113_coul>
14.1604515530478

> <r_glide_res:A113_hbond>
0

> <r_glide_res:A113_dist>
3.29563359401313

> <r_glide_res:A113_Eint>
13.3117588437633

> <r_glide_res:A82_vdw>
-0.991860998213608

> <r_glide_res:A82_coul>
-29.6570935174702

> <r_glide_res:A82_hbond>
0

> <r_glide_res:A82_dist>
3.23150968104326

> <r_glide_res:A82_Eint>
-30.6489545156838

> <r_glide_res:A42_vdw>
0.676361219783866

> <r_glide_res:A42_coul>
-36.469807691264

> <r_glide_res:A42_hbond>
-0.21603747664742

> <r_glide_res:A42_dist>
1.86640781034059

> <r_glide_res:A42_Eint>
-36.0094839481275

> <r_glide_res:A16_vdw>
-0.658768853218297

> <r_glide_res:A16_coul>
-22.6780053448634

> <r_glide_res:A16_hbond>
0

> <r_glide_res:A16_dist>
2.60971130204499

> <r_glide_res:A16_Eint>
-23.3367741980817

> <s_m_source_file>
ligprep_Nicaido_neutral.maegz

> <i_m_source_file_index>
26

> <i_lp_mmshare_version>
58128

> <i_f3d_flags>
0

> <s_lp_Force_Field>
S-OPLS

> <r_lp_Energy>
12.253328

> <b_lp_Chiralities_Consistent>
1

> <s_lp_Variant>
Penicillin N-1

> <s_epik_input>
W09IXUMoPU8pW0NASF0xQyhbQ0gzXSkoW0NIM10pU1tDQEBIXShOMTIpW0NAQEhdKEMyPU8pW05IXUMoPU8pW0NIMl1bQ0gyXVtDSDJdW0NASF0oW05IMl0pQyg9TylbT0hd

> <s_epik_cmdline>
J2VwaWtfcHl0aG9uJywgJy1waHQnLCAnMC4wJywgJy1waCcsICc3LjQnLCAnLW50JywgJy1tYScsICc1MDAnLCAnLWltYWUnLCAnPGluZmlsZS5tYWU+JywgJy1vbWFlJywgJzxvdXRmaWxlLm1hZT4n

> <r_lp_tautomer_probability>
1

> <r_epik_Ionization_Penalty>
  0.0034

> <r_epik_Ionization_Penalty_Charging>
  0.0034

> <r_epik_Ionization_Penalty_Neutral>
  0.0000

> <r_epik_State_Penalty>
  0.0000

> <r_epik_Charging_Adjusted_Penalty>
0.0034368723547391

> <i_epik_Tot_Q>
-1

> <i_epik_Tot_abs_Q>
3

> <s_epik_Chemistry_Notes>
This compound contains an acetal/aminal-like group ( X-CH(R)-Y where X, Y are N, S, or O) that may be acid/base labile, releasing an aldehyde.

> <s_m_subgroup_title>
glide-dock_Nicaido_neutral_pv1

> <s_m_subgroupid>
glide-dock_Nicaido_neutral_pv1

> <b_m_subgroup_collapsed>
0

$$$$
Aztreonam
                    3D
 Schrodinger Suite 2022-2.
 43 44  0  0  1  0            999 V2000
  -30.2428  -22.3365  -22.7698 C   0  0  0  0  0  0
  -30.5082  -21.1376  -23.6952 C   0  0  1  0  0  0
  -29.3399  -20.3541  -24.3538 C   0  0  2  0  0  0
  -29.6820  -21.1845  -25.6135 C   0  0  0  0  0  0
  -30.8756  -21.5304  -25.0524 N   0  0  0  0  0  0
  -32.0005  -22.6903  -25.4308 S   0  0  0  0  0  0
  -33.0749  -22.5195  -24.4431 O   0  0  0  0  0  0
  -31.2452  -23.9497  -25.3157 O   0  5  0  0  0  0
  -32.3756  -22.3499  -26.8135 O   0  0  0  0  0  0
  -29.1689  -21.5495  -26.6497 O   0  0  0  0  0  0
  -28.0659  -20.6567  -23.6939 N   0  0  0  0  0  0
  -26.8780  -20.9933  -24.2390 C   0  0  0  0  0  0
  -25.8227  -21.3701  -23.2029 C   0  0  0  0  0  0
  -26.0388  -20.7593  -21.8798 C   0  0  0  0  0  0
  -25.5020  -19.5303  -21.5849 C   0  0  0  0  0  0
  -25.9676  -18.9914  -20.0014 S   0  0  0  0  0  0
  -26.8799  -20.4828  -19.8006 C   0  0  0  0  0  0
  -27.6010  -20.7497  -18.6549 N   0  0  0  0  0  0
  -26.8315  -21.2925  -20.8573 N   0  0  0  0  0  0
  -24.8078  -22.1248  -23.3656 N   0  0  0  0  0  0
  -24.6459  -22.6210  -24.6737 O   0  0  0  0  0  0
  -23.4086  -23.3311  -24.8034 C   0  0  0  0  0  0
  -23.5547  -24.7749  -24.2571 C   0  0  0  0  0  0
  -24.3689  -25.5491  -24.8132 O   0  5  0  0  0  0
  -22.7692  -25.1495  -23.3558 O   0  0  0  0  0  0
  -23.1706  -23.4072  -26.3199 C   0  0  0  0  0  0
  -22.2051  -22.5845  -24.1636 C   0  0  0  0  0  0
  -26.6601  -21.0380  -25.4484 O   0  0  0  0  0  0
  -29.8629  -22.0045  -21.8029 H   0  0  0  0  0  0
  -31.1555  -22.8997  -22.5726 H   0  0  0  0  0  0
  -29.5134  -23.0293  -23.1914 H   0  0  0  0  0  0
  -31.2660  -20.4632  -23.2919 H   0  0  0  0  0  0
  -29.5432  -19.2852  -24.4410 H   0  0  0  0  0  0
  -28.1022  -20.6390  -22.6830 H   0  0  0  0  0  0
  -24.8884  -18.8961  -22.2101 H   0  0  0  0  0  0
  -28.4659  -21.2620  -18.7778 H   0  0  0  0  0  0
  -27.7233  -19.9647  -18.0239 H   0  0  0  0  0  0
  -22.2357  -23.9148  -26.5568 H   0  0  0  0  0  0
  -23.9690  -23.9496  -26.8136 H   0  0  0  0  0  0
  -23.1271  -22.4115  -26.7630 H   0  0  0  0  0  0
  -21.2602  -23.0635  -24.4225 H   0  0  0  0  0  0
  -22.1556  -21.5541  -24.5172 H   0  0  0  0  0  0
  -22.2592  -22.5565  -23.0744 H   0  0  0  0  0  0
  1  2  1  0  0  0
  1 29  1  0  0  0
  1 30  1  0  0  0
  1 31  1  0  0  0
  2  5  1  0  0  0
  2  3  1  0  0  0
  2 32  1  0  0  0
  3  4  1  0  0  0
  3 11  1  0  0  0
  3 33  1  0  0  0
  4  5  1  0  0  0
  4 10  2  0  0  0
  5  6  1  0  0  0
  6  7  2  0  0  0
  6  8  1  0  0  0
  6  9  2  0  0  0
 11 12  1  0  0  0
 11 34  1  0  0  0
 12 13  1  0  0  0
 12 28  2  0  0  0
 13 14  1  0  0  0
 13 20  2  3  0  0
 14 19  1  0  0  0
 14 15  2  0  0  0
 15 16  1  0  0  0
 15 35  1  0  0  0
 16 17  1  0  0  0
 17 18  1  0  0  0
 17 19  2  0  0  0
 18 36  1  0  0  0
 18 37  1  0  0  0
 20 21  1  0  0  0
 21 22  1  0  0  0
 22 23  1  0  0  0
 22 26  1  0  0  0
 22 27  1  0  0  0
 23 24  1  0  0  0
 23 25  2  0  0  0
 26 38  1  0  0  0
 26 39  1  0  0  0
 26 40  1  0  0  0
 27 41  1  0  0  0
 27 42  1  0  0  0
 27 43  1  0  0  0
M  CHG  2   8  -1  24  -1
M  END
> <s_m_entry_id>
27609

> <s_m_entry_name>
data_maestro.21

> <s_m_Source_Path>
C:\Users\olshana1\Git\GramNeg-Accumulation\Gram Negative Permeation - OmpF

> <s_m_Source_File>
data_maestro.csv

> <i_m_Source_File_Index>
21

> <s_m_job_name>
glide-dock_Nicaido_neutral

> <s_i_glide_gridfile>
3POX-grid

> <i_i_glide_lignum>
27

> <i_i_glide_rotatable_bonds>
8

> <r_i_docking_score>
-4.46159207867144

> <r_i_glide_ligand_efficiency>
-0.159342574238266

> <r_i_glide_ligand_efficiency_sa>
-0.483857903144759

> <r_i_glide_ligand_efficiency_ln>
-1.02986644979302

> <r_i_glide_gscore>
-4.46159207867144

> <r_i_glide_lipo>
0

> <r_i_glide_hbond>
-1.0516262651401

> <r_i_glide_metal>
0

> <r_i_glide_rewards>
-0.453402843231969

> <r_i_glide_evdw>
-22.5887432098389

> <r_i_glide_ecoul>
-11.2453384399414

> <r_i_glide_erotb>
0.635830109179744

> <r_i_glide_esite>
-0.776155152995959

> <r_i_glide_emodel>
-57.8636852246576

> <r_i_glide_energy>
-33.8340816497803

> <r_i_glide_einternal>
6.53798341751099

> <i_i_glide_confnum>
11

> <i_i_glide_posenum>
172

> <r_i_glide_eff_state_penalty>
0

> <r_glide_res:A132_vdw>
-1.10536688026081

> <r_glide_res:A132_coul>
-52.6499350808713

> <r_glide_res:A132_hbond>
0

> <r_glide_res:A132_dist>
3.76127849313136

> <r_glide_res:A132_Eint>
-53.7553019611321

> <r_glide_res:A117_vdw>
-3.28687221982214

> <r_glide_res:A117_coul>
35.4004829933733

> <r_glide_res:A117_hbond>
0

> <r_glide_res:A117_dist>
3.22112931921874

> <r_glide_res:A117_Eint>
32.1136107735511

> <r_glide_res:A113_vdw>
-1.68733009638718

> <r_glide_res:A113_coul>
30.307637400673

> <r_glide_res:A113_hbond>
0

> <r_glide_res:A113_dist>
2.79105844643243

> <r_glide_res:A113_Eint>
28.6203073042858

> <r_glide_res:A82_vdw>
-1.71333624528331

> <r_glide_res:A82_coul>
-73.9352427572484

> <r_glide_res:A82_hbond>
-0.169470943056112

> <r_glide_res:A82_dist>
1.93968597580828

> <r_glide_res:A82_Eint>
-75.8180499455878

> <r_glide_res:A42_vdw>
-3.11200443362517

> <r_glide_res:A42_coul>
-75.7291922636361

> <r_glide_res:A42_hbond>
-0.202155322083988

> <r_glide_res:A42_dist>
1.59663792719787

> <r_glide_res:A42_Eint>
-79.0433520193453

> <r_glide_res:A16_vdw>
-1.08243995105931

> <r_glide_res:A16_coul>
-65.7701095874974

> <r_glide_res:A16_hbond>
-0.16

> <r_glide_res:A16_dist>
1.89057913829908

> <r_glide_res:A16_Eint>
-67.0125495385567

> <s_m_source_file>
ligprep_Nicaido_neutral.maegz

> <i_m_source_file_index>
21

> <i_lp_mmshare_version>
58128

> <i_f3d_flags>
0

> <s_lp_Force_Field>
S-OPLS

> <r_lp_Energy>
50.237147

> <b_lp_Chiralities_Consistent>
1

> <s_lp_Variant>
Aztreonam-2

> <s_epik_input>
Tz1TKD1PKShbT0hdKU4xQyg9TylbQ0BASF0oW0NAQEhdMVtDSDNdKVtOSF1DKD1PKS9DKGMyW2NIXXNjKG4yKVtOSDJdKT1OL09DKFtDSDNdKShbQ0gzXSlDKD1PKVtPSF0=

> <s_epik_cmdline>
J2VwaWtfcHl0aG9uJywgJy1waHQnLCAnMC4wJywgJy1waCcsICc3LjQnLCAnLW50JywgJy1tYScsICc1MDAnLCAnLWltYWUnLCAnPGluZmlsZS5tYWU+JywgJy1vbWFlJywgJzxvdXRmaWxlLm1hZT4n

> <r_lp_tautomer_probability>
1

> <r_epik_Ionization_Penalty>
  0.0004

> <r_epik_Ionization_Penalty_Charging>
  0.0000

> <r_epik_Ionization_Penalty_Neutral>
  0.0004

> <r_epik_State_Penalty>
  0.0000

> <r_epik_Charging_Adjusted_Penalty>
4.45674509427693e-05

> <i_epik_Tot_Q>
-2

> <i_epik_Tot_abs_Q>
2

> <s_epik_Chemistry_Notes>
This compound has an imine and may undergo hydrolysis.

> <s_m_subgroup_title>
glide-dock_Nicaido_neutral_pv1

> <s_m_subgroupid>
glide-dock_Nicaido_neutral_pv1

> <b_m_subgroup_collapsed>
0

$$$$
Nocardicin B
                    3D
 Schrodinger Suite 2022-2.
 59 61  0  0  1  0            999 V2000
  -24.2958  -24.7485  -22.4125 O   0  0  0  0  0  0
  -23.3420  -24.1356  -21.9818 C   0  0  0  0  0  0
  -22.1381  -23.4119  -22.5944 C   0  0  2  0  0  0
  -21.8121  -22.9968  -21.1602 C   0  0  0  0  0  0
  -22.9294  -23.8409  -20.7029 N   0  0  0  0  0  0
  -23.4686  -24.1825  -19.3788 C   0  0  2  0  0  0
  -23.8689  -22.9139  -18.6758 C   0  0  0  0  0  0
  -25.2293  -22.6763  -18.3662 C   0  0  0  0  0  0
  -25.6759  -21.4379  -17.8637 C   0  0  0  0  0  0
  -24.7544  -20.4008  -17.6359 C   0  0  0  0  0  0
  -23.3862  -20.6356  -17.8592 C   0  0  0  0  0  0
  -22.9532  -21.8767  -18.3675 C   0  0  0  0  0  0
  -25.1689  -19.1695  -17.2134 O   0  0  0  0  0  0
  -22.4878  -24.9883  -18.4854 C   0  0  0  0  0  0
  -22.7690  -25.1494  -17.2743 O   0  5  0  0  0  0
  -21.5001  -25.5278  -19.0385 O   0  0  0  0  0  0
  -22.5194  -22.2824  -23.4382 N   0  0  0  0  0  0
  -21.7205  -21.7203  -24.3629 C   0  0  0  0  0  0
  -22.3103  -20.5068  -25.0787 C   0  0  0  0  0  0
  -23.7196  -20.1764  -24.7369 C   0  0  0  0  0  0
  -24.7519  -20.4732  -25.6531 C   0  0  0  0  0  0
  -26.0860  -20.1499  -25.3494 C   0  0  0  0  0  0
  -26.4147  -19.5412  -24.1253 C   0  0  0  0  0  0
  -25.3818  -19.2364  -23.2091 C   0  0  0  0  0  0
  -24.0436  -19.5488  -23.5148 C   0  0  0  0  0  0
  -27.7424  -19.2626  -23.8868 O   0  0  0  0  0  0
  -28.2415  -19.6423  -22.6091 C   0  0  0  0  0  0
  -28.4813  -21.1622  -22.6231 C   0  0  0  0  0  0
  -28.3771  -21.8415  -21.2417 C   0  0  2  0  0  0
  -28.1837  -23.3624  -21.3710 C   0  0  0  0  0  0
  -28.5468  -23.9494  -22.4171 O   0  5  0  0  0  0
  -27.6759  -23.9495  -20.3942 O   0  0  0  0  0  0
  -29.5689  -21.5929  -20.4136 N   0  3  0  0  0  0
  -21.6242  -19.8675  -25.9410 N   0  0  0  0  0  0
  -22.3636  -18.7528  -26.4737 O   0  0  0  0  0  0
  -20.5960  -22.1500  -24.6249 O   0  0  0  0  0  0
  -21.3846  -24.0742  -23.0232 H   0  0  0  0  0  0
  -20.8324  -23.3361  -20.8224 H   0  0  0  0  0  0
  -21.9489  -21.9309  -20.9679 H   0  0  0  0  0  0
  -24.3401  -24.8202  -19.5285 H   0  0  0  0  0  0
  -25.9573  -23.4506  -18.5480 H   0  0  0  0  0  0
  -26.7271  -21.2851  -17.6658 H   0  0  0  0  0  0
  -22.6666  -19.8530  -17.6690 H   0  0  0  0  0  0
  -21.8998  -22.0170  -18.5565 H   0  0  0  0  0  0
  -26.1085  -19.0131  -17.2243 H   0  0  0  0  0  0
  -23.4276  -21.8673  -23.2740 H   0  0  0  0  0  0
  -24.5184  -20.9337  -26.6031 H   0  0  0  0  0  0
  -26.8730  -20.3739  -26.0502 H   0  0  0  0  0  0
  -25.5935  -18.7287  -22.2806 H   0  0  0  0  0  0
  -23.2640  -19.2900  -22.8112 H   0  0  0  0  0  0
  -29.1816  -19.1195  -22.4304 H   0  0  0  0  0  0
  -27.5829  -19.3454  -21.7935 H   0  0  0  0  0  0
  -27.7289  -21.6159  -23.2692 H   0  0  0  0  0  0
  -29.4384  -21.3781  -23.0983 H   0  0  0  0  0  0
  -27.5102  -21.4446  -20.7111 H   0  0  0  0  0  0
  -29.4820  -22.0792  -19.5310 H   0  0  0  0  0  0
  -29.6938  -20.6093  -20.2072 H   0  0  0  0  0  0
  -23.0559  -18.6131  -25.8374 H   0  0  0  0  0  0
  -30.3906  -21.9423  -20.8833 H   0  0  0  0  0  0
  1  2  2  0  0  0
  2  5  1  0  0  0
  2  3  1  0  0  0
  3  4  1  0  0  0
  3 17  1  0  0  0
  3 37  1  0  0  0
  4  5  1  0  0  0
  4 38  1  0  0  0
  4 39  1  0  0  0
  5  6  1  0  0  0
  6  7  1  0  0  0
  6 14  1  0  0  0
  6 40  1  0  0  0
  7 12  1  0  0  0
  7  8  2  0  0  0
  8  9  1  0  0  0
  8 41  1  0  0  0
  9 10  2  0  0  0
  9 42  1  0  0  0
 10 11  1  0  0  0
 10 13  1  0  0  0
 11 12  2  0  0  0
 11 43  1  0  0  0
 12 44  1  0  0  0
 13 45  1  0  0  0
 14 15  1  0  0  0
 14 16  2  0  0  0
 17 18  1  0  0  0
 17 46  1  0  0  0
 18 19  1  0  0  0
 18 36  2  0  0  0
 19 20  1  0  0  0
 19 34  2  3  0  0
 20 25  1  0  0  0
 20 21  2  0  0  0
 21 22  1  0  0  0
 21 47  1  0  0  0
 22 23  2  0  0  0
 22 48  1  0  0  0
 23 24  1  0  0  0
 23 26  1  0  0  0
 24 25  2  0  0  0
 24 49  1  0  0  0
 25 50  1  0  0  0
 26 27  1  0  0  0
 27 28  1  0  0  0
 27 51  1  0  0  0
 27 52  1  0  0  0
 28 29  1  0  0  0
 28 53  1  0  0  0
 28 54  1  0  0  0
 29 30  1  0  0  0
 29 33  1  0  0  0
 29 55  1  0  0  0
 30 31  1  0  0  0
 30 32  2  0  0  0
 33 56  1  0  0  0
 33 57  1  0  0  0
 33 59  1  0  0  0
 34 35  1  0  0  0
 35 58  1  0  0  0
M  CHG  3  15  -1  31  -1  33   1
M  END
> <s_m_entry_id>
27610

> <s_m_entry_name>
data_maestro.29

> <s_m_Source_Path>
C:\Users\olshana1\Git\GramNeg-Accumulation\Gram Negative Permeation - OmpF

> <s_m_Source_File>
data_maestro.csv

> <i_m_Source_File_Index>
29

> <s_m_job_name>
glide-dock_Nicaido_neutral

> <s_i_glide_gridfile>
3POX-grid

> <i_i_glide_lignum>
36

> <i_i_glide_rotatable_bonds>
14

> <r_i_docking_score>
-4.45793312556629

> <r_i_glide_ligand_efficiency>
-0.123831475710175

> <r_i_glide_ligand_efficiency_sa>
-0.408882523429846

> <r_i_glide_ligand_efficiency_ln>
-0.972600568564003

> <r_i_glide_gscore>
-4.45793312556629

> <r_i_glide_lipo>
0

> <r_i_glide_hbond>
-1.07594137351732

> <r_i_glide_metal>
0

> <r_i_glide_rewards>
0.601121548214724

> <r_i_glide_evdw>
-29.0381164550781

> <r_i_glide_ecoul>
-19.9140682220459

> <r_i_glide_erotb>
0.900147327125679

> <r_i_glide_esite>
-0.444244571328578

> <r_i_glide_emodel>
-69.965148910645

> <r_i_glide_energy>
-48.952184677124

> <r_i_glide_einternal>
14.3415517807007

> <i_i_glide_confnum>
350

> <i_i_glide_posenum>
190

> <r_i_glide_eff_state_penalty>
0

> <r_glide_res:A132_vdw>
0.134934937892451

> <r_glide_res:A132_coul>
-47.5459399500835

> <r_glide_res:A132_hbond>
-0.203519170437497

> <r_glide_res:A132_dist>
1.83755952674137

> <r_glide_res:A132_Eint>
-47.6145241826285

> <r_glide_res:A117_vdw>
-4.59368398448299

> <r_glide_res:A117_coul>
9.08610669925055

> <r_glide_res:A117_hbond>
-0.0173111188467922

> <r_glide_res:A117_dist>
2.43870879097073

> <r_glide_res:A117_Eint>
4.47511159592076

> <r_glide_res:A113_vdw>
1.61892289921477

> <r_glide_res:A113_coul>
-19.0074839771404

> <r_glide_res:A113_hbond>
-0.140085615255316

> <r_glide_res:A113_dist>
2.08826676888328

> <r_glide_res:A113_Eint>
-17.5286466931809

> <r_glide_res:A82_vdw>
-1.47761133588916

> <r_glide_res:A82_coul>
-38.65741411791

> <r_glide_res:A82_hbond>
-0.235025468977717

> <r_glide_res:A82_dist>
2.25177466405877

> <r_glide_res:A82_Eint>
-40.3700509227768

> <r_glide_res:A42_vdw>
-1.3677904922083

> <r_glide_res:A42_coul>
-20.1852560844989

> <r_glide_res:A42_hbond>
0

> <r_glide_res:A42_dist>
2.63637540940249

> <r_glide_res:A42_Eint>
-21.5530465767072

> <r_glide_res:A16_vdw>
-0.193782428346299

> <r_glide_res:A16_coul>
-11.192281711983

> <r_glide_res:A16_hbond>
0

> <r_glide_res:A16_dist>
4.07382137752524

> <r_glide_res:A16_Eint>
-11.3860641403293

> <s_m_source_file>
ligprep_Nicaido_neutral.maegz

> <i_m_source_file_index>
29

> <i_lp_mmshare_version>
58128

> <i_f3d_flags>
0

> <s_lp_Force_Field>
S-OPLS

> <r_lp_Energy>
60.848016

> <b_lp_Chiralities_Consistent>
1

> <s_lp_Variant>
Nocardicin B-1

> <s_epik_input>
W2NIXTFbY0hdYyhbT0hdKVtjSF1bY0hdYzFbQ0BIXShDKD1PKVtPSF0pTjJbQ0gyXVtDQEBIXShDMj1PKVtOSF1DKD1PKS9DKD1OL1tPSF0pYzNbY0hdW2NIXWMoW2NIXVtjSF0zKU9bQ0gyXVtDSDJdW0NAQEhdKFtOSDJdKUMoPU8pW09IXQ==

> <s_epik_cmdline>
J2VwaWtfcHl0aG9uJywgJy1waHQnLCAnMC4wJywgJy1waCcsICc3LjQnLCAnLW50JywgJy1tYScsICc1MDAnLCAnLWltYWUnLCAnPGluZmlsZS5tYWU+JywgJy1vbWFlJywgJzxvdXRmaWxlLm1hZT4n

> <r_lp_tautomer_probability>
1

> <r_epik_Ionization_Penalty>
  0.0116

> <r_epik_Ionization_Penalty_Charging>
  0.0086

> <r_epik_Ionization_Penalty_Neutral>
  0.0030

> <r_epik_State_Penalty>
  0.0000

> <r_epik_Charging_Adjusted_Penalty>
0.0085560600321308

> <i_epik_Tot_Q>
-1

> <i_epik_Tot_abs_Q>
3

> <s_epik_Chemistry_Notes>
This compound has an imine and may undergo hydrolysis.

> <s_m_subgroup_title>
glide-dock_Nicaido_neutral_pv1

> <s_m_subgroupid>
glide-dock_Nicaido_neutral_pv1

> <b_m_subgroup_collapsed>
0

$$$$
Ceftriaxone
                    3D
 Schrodinger Suite 2022-2.
 52 55  0  0  1  0            999 V2000
  -23.9883  -24.0595  -24.6273 C   0  0  0  0  0  0
  -23.7427  -24.3366  -23.2189 N   0  0  0  0  0  0
  -24.1914  -23.4458  -22.2020 C   0  0  0  0  0  0
  -25.1974  -22.0529  -22.8662 S   0  0  0  0  0  0
  -26.0679  -21.4069  -21.3995 C   0  0  0  0  0  0
  -27.5300  -21.0794  -21.7047 C   0  0  0  0  0  0
  -28.4973  -22.0299  -21.8220 C   0  0  0  0  0  0
  -29.8387  -21.7199  -22.1102 N   0  0  0  0  0  0
  -30.4016  -20.4045  -21.8756 C   0  0  2  0  0  0
  -31.7217  -20.9299  -22.4746 C   0  0  2  0  0  0
  -31.0456  -22.3263  -22.4190 C   0  0  0  0  0  0
  -31.3671  -23.4845  -22.5814 O   0  0  0  0  0  0
  -31.9240  -20.4171  -23.8276 N   0  0  0  0  0  0
  -32.8419  -20.8414  -24.7106 C   0  0  0  0  0  0
  -32.7147  -20.2189  -26.1179 C   0  0  0  0  0  0
  -31.4919  -19.3965  -26.3809 C   0  0  0  0  0  0
  -31.5494  -18.2833  -27.1908 C   0  0  0  0  0  0
  -29.9870  -17.5507  -27.4231 S   0  0  0  0  0  0
  -29.3030  -18.7585  -26.3623 C   0  0  0  0  0  0
  -27.9687  -18.7494  -26.0093 N   0  0  0  0  0  0
  -30.1781  -19.6867  -25.9787 N   0  0  0  0  0  0
  -33.5390  -20.3423  -27.0911 N   0  0  0  0  0  0
  -34.6670  -21.1292  -26.8304 O   0  0  0  0  0  0
  -35.4903  -21.1079  -27.9838 C   0  0  0  0  0  0
  -33.6967  -21.6764  -24.4152 O   0  0  0  0  0  0
  -29.3514  -19.1768  -22.7035 S   0  0  0  0  0  0
  -27.7902  -19.5841  -21.8735 C   0  0  0  0  0  0
  -28.1610  -23.5500  -21.7357 C   0  0  0  0  0  0
  -28.3715  -24.2327  -22.7636 O   0  5  0  0  0  0
  -27.6702  -23.9502  -20.6592 O   0  0  0  0  0  0
  -23.9322  -23.5906  -20.9331 N   0  0  0  0  0  0
  -23.1715  -24.6790  -20.5107 C   0  0  0  0  0  0
  -22.7683  -25.7506  -21.5724 C   0  0  0  0  0  0
  -22.1878  -26.7523  -21.1533 O   0  0  0  0  0  0
  -23.0930  -25.5503  -22.8761 N   0  5  0  0  0  0
  -22.8313  -24.8634  -19.3413 O   0  0  0  0  0  0
  -23.5601  -23.0998  -24.9188 H   0  0  0  0  0  0
  -23.5449  -24.8263  -25.2631 H   0  0  0  0  0  0
  -25.0610  -24.0462  -24.8146 H   0  0  0  0  0  0
  -25.5468  -20.5149  -21.0501 H   0  0  0  0  0  0
  -26.0188  -22.1045  -20.5663 H   0  0  0  0  0  0
  -30.4756  -20.1956  -20.8126 H   0  0  0  0  0  0
  -32.5718  -20.7896  -21.8054 H   0  0  0  0  0  0
  -31.2225  -19.7594  -24.1458 H   0  0  0  0  0  0
  -32.4165  -17.8435  -27.6628 H   0  0  0  0  0  0
  -27.7182  -19.2213  -25.1519 H   0  0  0  0  0  0
  -27.4705  -17.8576  -26.1135 H   0  0  0  0  0  0
  -36.3768  -21.7176  -27.8090 H   0  0  0  0  0  0
  -35.8233  -20.0945  -28.2154 H   0  0  0  0  0  0
  -34.9727  -21.5141  -28.8549 H   0  0  0  0  0  0
  -27.7731  -19.1073  -20.8926 H   0  0  0  0  0  0
  -26.9813  -19.1515  -22.4613 H   0  0  0  0  0  0
  1  2  1  0  0  0
  1 37  1  0  0  0
  1 38  1  0  0  0
  1 39  1  0  0  0
  2 35  1  0  0  0
  2  3  1  0  0  0
  3  4  1  0  0  0
  3 31  2  0  0  0
  4  5  1  0  0  0
  5  6  1  0  0  0
  5 40  1  0  0  0
  5 41  1  0  0  0
  6 27  1  0  0  0
  6  7  2  0  0  0
  7  8  1  0  0  0
  7 28  1  0  0  0
  8 11  1  0  0  0
  8  9  1  0  0  0
  9 10  1  0  0  0
  9 26  1  0  0  0
  9 42  1  0  0  0
 10 11  1  0  0  0
 10 13  1  0  0  0
 10 43  1  0  0  0
 11 12  2  0  0  0
 13 14  1  0  0  0
 13 44  1  0  0  0
 14 15  1  0  0  0
 14 25  2  0  0  0
 15 16  1  0  0  0
 15 22  2  3  0  0
 16 21  1  0  0  0
 16 17  2  0  0  0
 17 18  1  0  0  0
 17 45  1  0  0  0
 18 19  1  0  0  0
 19 20  1  0  0  0
 19 21  2  0  0  0
 20 46  1  0  0  0
 20 47  1  0  0  0
 22 23  1  0  0  0
 23 24  1  0  0  0
 24 48  1  0  0  0
 24 49  1  0  0  0
 24 50  1  0  0  0
 26 27  1  0  0  0
 27 51  1  0  0  0
 27 52  1  0  0  0
 28 29  1  0  0  0
 28 30  2  0  0  0
 31 32  1  0  0  0
 32 33  1  0  0  0
 32 36  2  0  0  0
 33 34  2  0  0  0
 33 35  1  0  0  0
M  CHG  2  29  -1  35  -1
M  END
> <s_m_entry_id>
27611

> <s_m_entry_name>
data_maestro.22

> <s_m_Source_Path>
C:\Users\olshana1\Git\GramNeg-Accumulation\Gram Negative Permeation - OmpF

> <s_m_Source_File>
data_maestro.csv

> <i_m_Source_File_Index>
22

> <s_m_job_name>
glide-dock_Nicaido_neutral

> <s_i_glide_gridfile>
3POX-grid

> <i_i_glide_lignum>
29

> <i_i_glide_rotatable_bonds>
9

> <r_i_docking_score>
-4.4542901996115

> <r_i_glide_ligand_efficiency>
-0.123730283322542

> <r_i_glide_ligand_efficiency_sa>
-0.408548393528139

> <r_i_glide_ligand_efficiency_ln>
-0.971805780541154

> <r_i_glide_gscore>
-4.4542901996115

> <r_i_glide_lipo>
0

> <r_i_glide_hbond>
-0.832723851639253

> <r_i_glide_metal>
0

> <r_i_glide_rewards>
0.000389337691698012

> <r_i_glide_evdw>
-30.3099708557129

> <r_i_glide_ecoul>
-13.1476573944092

> <r_i_glide_erotb>
0.472124986767549

> <r_i_glide_esite>
-0.606433520484473

> <r_i_glide_emodel>
-72.0759848470109

> <r_i_glide_energy>
-43.4576282501221

> <r_i_glide_einternal>
6.2378945350647

> <i_i_glide_confnum>
107

> <i_i_glide_posenum>
302

> <r_i_glide_eff_state_penalty>
0

> <r_glide_res:A132_vdw>
-1.6807621293458

> <r_glide_res:A132_coul>
-82.4917125383705

> <r_glide_res:A132_hbond>
-0.206481684973041

> <r_glide_res:A132_dist>
1.84273328817403

> <r_glide_res:A132_Eint>
-84.3789563526893

> <r_glide_res:A117_vdw>
-3.03073007152353

> <r_glide_res:A117_coul>
28.6533160184075

> <r_glide_res:A117_hbond>
-0.16

> <r_glide_res:A117_dist>
1.85263348032604

> <r_glide_res:A117_Eint>
25.462585946884

> <r_glide_res:A113_vdw>
-2.83567279666701

> <r_glide_res:A113_coul>
38.9095170628266

> <r_glide_res:A113_hbond>
0

> <r_glide_res:A113_dist>
2.21733093801219

> <r_glide_res:A113_Eint>
36.0738442661596

> <r_glide_res:A82_vdw>
0.622348577295984

> <r_glide_res:A82_coul>
-82.0486191177255

> <r_glide_res:A82_hbond>
-0.325042502033545

> <r_glide_res:A82_dist>
1.79756730877281

> <r_glide_res:A82_Eint>
-81.7513130424631

> <r_glide_res:A42_vdw>
-1.91763574543314

> <r_glide_res:A42_coul>
-54.1487868191672

> <r_glide_res:A42_hbond>
0

> <r_glide_res:A42_dist>
2.33011216356077

> <r_glide_res:A42_Eint>
-56.0664225646003

> <r_glide_res:A16_vdw>
-1.8307383134198

> <r_glide_res:A16_coul>
-37.7836990986164

> <r_glide_res:A16_hbond>
0

> <r_glide_res:A16_dist>
2.59160501514208

> <r_glide_res:A16_Eint>
-39.6144374120362

> <s_m_source_file>
ligprep_Nicaido_neutral.maegz

> <i_m_source_file_index>
22

> <i_lp_mmshare_version>
58128

> <i_f3d_flags>
0

> <s_lp_Force_Field>
S-OPLS

> <r_lp_Energy>
111.196812

> <b_lp_Chiralities_Consistent>
1

> <s_lp_Variant>
Ceftriaxone-2

> <s_epik_input>
W09IXWMobjEpYyg9TyluYyhuMVtDSDNdKVNbQ0gyXUMoPUMyQyg9TylbT0hdKVtDSDJdU1tDQEhdKE4yMylbQ0BIXShDMz1PKVtOSF1DKD1PKS9DKD1OL09bQ0gzXSljNFtjSF1zYyhuNClbTkgyXQ==

> <s_epik_cmdline>
J2VwaWtfcHl0aG9uJywgJy1waHQnLCAnMC4wJywgJy1waCcsICc3LjQnLCAnLW50JywgJy1tYScsICc1MDAnLCAnLWltYWUnLCAnPGluZmlsZS5tYWU+JywgJy1vbWFlJywgJzxvdXRmaWxlLm1hZT4n

> <r_lp_tautomer_probability>
1

> <r_epik_Ionization_Penalty>
  0.0014

> <r_epik_Ionization_Penalty_Charging>
  0.0010

> <r_epik_Ionization_Penalty_Neutral>
  0.0004

> <r_epik_State_Penalty>
  0.0000

> <r_epik_Charging_Adjusted_Penalty>
0.000994184415634904

> <i_epik_Tot_Q>
-2

> <i_epik_Tot_abs_Q>
2

> <s_epik_Chemistry_Notes>
This compound has an imine and may undergo hydrolysis. This compound contains an acetal/aminal-like group ( X-CH(R)-Y where X, Y are N, S, or O) that may be acid/base labile, releasing an aldehyde.

> <s_m_subgroup_title>
glide-dock_Nicaido_neutral_pv1

> <s_m_subgroupid>
glide-dock_Nicaido_neutral_pv1

> <b_m_subgroup_collapsed>
0

$$$$
Cephaloridine
                    3D
 Schrodinger Suite 2022-2.
 45 48  0  0  1  0            999 V2000
  -27.9691  -21.5237  -26.0121 O   0  0  0  0  0  0
  -28.1304  -20.7077  -25.1308 C   0  0  0  0  0  0
  -27.6386  -19.2857  -24.7461 C   0  0  2  0  0  0
  -26.1835  -19.1501  -24.5347 N   0  0  0  0  0  0
  -25.3130  -20.0384  -24.0114 C   0  0  0  0  0  0
  -23.8571  -19.5870  -23.8766 C   0  0  0  0  0  0
  -23.5232  -19.2255  -22.4620 C   0  0  0  0  0  0
  -22.5624  -19.7875  -21.6600 C   0  0  0  0  0  0
  -22.5030  -19.2052  -20.3593 C   0  0  0  0  0  0
  -23.4191  -18.2030  -20.1839 C   0  0  0  0  0  0
  -24.3687  -17.9497  -21.6207 S   0  0  0  0  0  0
  -25.6205  -21.1730  -23.6416 O   0  0  0  0  0  0
  -28.4440  -19.4864  -23.4404 C   0  0  2  0  0  0
  -28.8857  -20.7557  -23.9830 N   0  0  0  0  0  0
  -29.6536  -21.6567  -23.2393 C   0  0  0  0  0  0
  -29.5230  -23.1514  -23.6620 C   0  0  0  0  0  0
  -29.0515  -23.9495  -22.8163 O   0  5  0  0  0  0
  -29.9105  -23.4415  -24.8146 O   0  0  0  0  0  0
  -30.4974  -21.2357  -22.2650 C   0  0  0  0  0  0
  -31.3564  -22.1932  -21.4483 C   0  0  0  0  0  0
  -32.7808  -22.0819  -21.8050 N   0  3  0  0  0  0
  -33.6524  -21.5495  -20.9149 C   0  0  0  0  0  0
  -35.0246  -21.4504  -21.2212 C   0  0  0  0  0  0
  -35.4844  -21.9187  -22.4671 C   0  0  0  0  0  0
  -34.5601  -22.4767  -23.3729 C   0  0  0  0  0  0
  -33.1988  -22.5465  -23.0097 C   0  0  0  0  0  0
  -30.6281  -19.7671  -21.8399 C   0  0  0  0  0  0
  -29.9689  -18.5770  -23.0438 S   0  0  0  0  0  0
  -28.0523  -18.4837  -25.3587 H   0  0  0  0  0  0
  -25.7832  -18.2536  -24.8121 H   0  0  0  0  0  0
  -23.6503  -18.7495  -24.5395 H   0  0  0  0  0  0
  -23.2134  -20.4002  -24.2134 H   0  0  0  0  0  0
  -21.9050  -20.5899  -21.9590 H   0  0  0  0  0  0
  -21.8016  -19.5366  -19.6081 H   0  0  0  0  0  0
  -23.5956  -17.5980  -19.3059 H   0  0  0  0  0  0
  -27.8235  -19.6242  -22.5517 H   0  0  0  0  0  0
  -31.0941  -23.2457  -21.5312 H   0  0  0  0  0  0
  -31.2293  -21.9303  -20.4134 H   0  0  0  0  0  0
  -33.2371  -21.1960  -19.9839 H   0  0  0  0  0  0
  -35.7062  -21.0097  -20.5046 H   0  0  0  0  0  0
  -36.5323  -21.8502  -22.7228 H   0  0  0  0  0  0
  -34.8910  -22.8451  -24.3331 H   0  0  0  0  0  0
  -32.4389  -22.9639  -23.6538 H   0  0  0  0  0  0
  -31.6705  -19.5104  -21.6553 H   0  0  0  0  0  0
  -30.0982  -19.6342  -20.8954 H   0  0  0  0  0  0
  1  2  2  0  0  0
  2 14  1  0  0  0
  2  3  1  0  0  0
  3  4  1  0  0  0
  3 13  1  0  0  0
  3 29  1  0  0  0
  4  5  1  0  0  0
  4 30  1  0  0  0
  5  6  1  0  0  0
  5 12  2  0  0  0
  6  7  1  0  0  0
  6 31  1  0  0  0
  6 32  1  0  0  0
  7 11  1  0  0  0
  7  8  2  0  0  0
  8  9  1  0  0  0
  8 33  1  0  0  0
  9 10  2  0  0  0
  9 34  1  0  0  0
 10 11  1  0  0  0
 10 35  1  0  0  0
 13 28  1  0  0  0
 13 14  1  0  0  0
 13 36  1  0  0  0
 14 15  1  0  0  0
 15 16  1  0  0  0
 15 19  2  0  0  0
 16 17  1  0  0  0
 16 18  2  0  0  0
 19 20  1  0  0  0
 19 27  1  0  0  0
 20 21  1  0  0  0
 20 37  1  0  0  0
 20 38  1  0  0  0
 21 26  1  0  0  0
 21 22  2  0  0  0
 22 23  1  0  0  0
 22 39  1  0  0  0
 23 24  2  0  0  0
 23 40  1  0  0  0
 24 25  1  0  0  0
 24 41  1  0  0  0
 25 26  2  0  0  0
 25 42  1  0  0  0
 26 43  1  0  0  0
 27 28  1  0  0  0
 27 44  1  0  0  0
 27 45  1  0  0  0
M  CHG  2  17  -1  21   1
M  END
> <s_m_entry_id>
27612

> <s_m_entry_name>
data_maestro.13

> <s_m_Source_Path>
C:\Users\olshana1\Git\GramNeg-Accumulation\Gram Negative Permeation - OmpF

> <s_m_Source_File>
data_maestro.csv

> <i_m_Source_File_Index>
13

> <s_m_job_name>
glide-dock_Nicaido_neutral

> <s_i_glide_gridfile>
3POX-grid

> <i_i_glide_lignum>
18

> <i_i_glide_rotatable_bonds>
7

> <r_i_docking_score>
-4.45355409585534

> <r_i_glide_ligand_efficiency>
-0.159055503423405

> <r_i_glide_ligand_efficiency_sa>
-0.482986187075174

> <r_i_glide_ligand_efficiency_ln>
-1.02801104735363

> <r_i_glide_gscore>
-4.45355409585534

> <r_i_glide_lipo>
-0.0500625581817674

> <r_i_glide_hbond>
-0.713761637853855

> <r_i_glide_metal>
0

> <r_i_glide_rewards>
-0.576211630692143

> <r_i_glide_evdw>
-24.1537609100342

> <r_i_glide_ecoul>
-13.3961906433105

> <r_i_glide_erotb>
0.571951339556603

> <r_i_glide_esite>
-0.468352966685888

> <r_i_glide_emodel>
-57.7615291097687

> <r_i_glide_energy>
-37.5499515533447

> <r_i_glide_einternal>
6.26291084289551

> <i_i_glide_confnum>
18

> <i_i_glide_posenum>
334

> <r_i_glide_eff_state_penalty>
0

> <r_glide_res:A132_vdw>
-0.870593527038634

> <r_glide_res:A132_coul>
-11.8264987868871

> <r_glide_res:A132_hbond>
0

> <r_glide_res:A132_dist>
3.01752611953314

> <r_glide_res:A132_Eint>
-12.6970923139257

> <r_glide_res:A117_vdw>
-5.60147440039117

> <r_glide_res:A117_coul>
-8.3046716621463

> <r_glide_res:A117_hbond>
-0.16

> <r_glide_res:A117_dist>
1.91579110111524

> <r_glide_res:A117_Eint>
-14.0661460625375

> <r_glide_res:A113_vdw>
-3.37134264972911

> <r_glide_res:A113_coul>
-19.1898107783454

> <r_glide_res:A113_hbond>
0

> <r_glide_res:A113_dist>
2.26768044640891

> <r_glide_res:A113_Eint>
-22.5611534280745

> <r_glide_res:A82_vdw>
-0.39813014562522

> <r_glide_res:A82_coul>
-26.9090970628586

> <r_glide_res:A82_hbond>
-0.226394341011233

> <r_glide_res:A82_dist>
1.91633551408493

> <r_glide_res:A82_Eint>
-27.533621549495

> <r_glide_res:A42_vdw>
0.390653843135316

> <r_glide_res:A42_coul>
-30.2732882657547

> <r_glide_res:A42_hbond>
-0.327367296842622

> <r_glide_res:A42_dist>
1.86637232120185

> <r_glide_res:A42_Eint>
-30.210001719462

> <r_glide_res:A16_vdw>
-0.83690836998081

> <r_glide_res:A16_coul>
-10.4083487524187

> <r_glide_res:A16_hbond>
0

> <r_glide_res:A16_dist>
3.15786456107403

> <r_glide_res:A16_Eint>
-11.2452571223995

> <s_m_source_file>
ligprep_Nicaido_neutral.maegz

> <i_m_source_file_index>
13

> <i_lp_mmshare_version>
58128

> <i_f3d_flags>
0

> <s_lp_Force_Field>
S-OPLS

> <r_lp_Energy>
50.740529

> <b_lp_Chiralities_Consistent>
1

> <s_lp_Variant>
Cephaloridine-1

> <s_epik_input>
czFbY0hdW2NIXVtjSF1jMVtDSDJdQyg9TylbTkhdW0NASF0yQyg9TylOKFtDQEBIXTIzKUMoQyg9TylbT0hdKT1DKFtDSDJdUzMpW0NIMl1bbitdNFtjSF1bY0hdW2NIXVtjSF1bY0hdNA==

> <s_epik_cmdline>
J2VwaWtfcHl0aG9uJywgJy1waHQnLCAnMC4wJywgJy1waCcsICc3LjQnLCAnLW50JywgJy1tYScsICc1MDAnLCAnLWltYWUnLCAnPGluZmlsZS5tYWU+JywgJy1vbWFlJywgJzxvdXRmaWxlLm1hZT4n

> <r_lp_tautomer_probability>
1

> <r_epik_Ionization_Penalty>
  0.0000

> <r_epik_Ionization_Penalty_Charging>
  0.0000

> <r_epik_Ionization_Penalty_Neutral>
  0.0000

> <r_epik_State_Penalty>
  0.0000

> <r_epik_Charging_Adjusted_Penalty>
1.62498989321064e-05

> <i_epik_Tot_Q>
0

> <i_epik_Tot_abs_Q>
2

> <s_epik_Chemistry_Notes>
This compound contains an acetal/aminal-like group ( X-CH(R)-Y where X, Y are N, S, or O) that may be acid/base labile, releasing an aldehyde.

> <s_m_subgroup_title>
glide-dock_Nicaido_neutral_pv1

> <s_m_subgroupid>
glide-dock_Nicaido_neutral_pv1

> <b_m_subgroup_collapsed>
0

$$$$
Cefotaxime
                    3D
 Schrodinger Suite 2022-2.
 46 48  0  0  1  0            999 V2000
  -21.3371  -20.0209  -27.5310 C   0  0  0  0  0  0
  -21.8059  -21.1305  -26.6053 C   0  0  0  0  0  0
  -21.0719  -21.1807  -25.4820 O   0  0  0  0  0  0
  -21.3936  -22.1065  -24.4517 C   0  0  0  0  0  0
  -22.7095  -21.7733  -23.7428 C   0  0  0  0  0  0
  -23.6498  -22.7115  -23.4276 C   0  0  0  0  0  0
  -24.8958  -22.3323  -22.8885 N   0  0  0  0  0  0
  -25.4477  -21.0024  -23.0832 C   0  0  1  0  0  0
  -26.6755  -21.4536  -22.2722 C   0  0  2  0  0  0
  -26.0104  -22.8470  -22.2463 C   0  0  0  0  0  0
  -26.3070  -23.9517  -21.8501 O   0  0  0  0  0  0
  -27.9362  -21.3275  -23.0214 N   0  0  0  0  0  0
  -28.4669  -22.0990  -23.9969 C   0  0  0  0  0  0
  -29.7616  -21.5842  -24.5972 C   0  0  0  0  0  0
  -30.2578  -20.3059  -24.0322 C   0  0  0  0  0  0
  -30.2670  -19.1576  -24.7879 C   0  0  0  0  0  0
  -30.7717  -17.7881  -23.8525 S   0  0  0  0  0  0
  -30.9459  -18.8347  -22.4500 C   0  0  0  0  0  0
  -31.3276  -18.3497  -21.2132 N   0  0  0  0  0  0
  -30.6604  -20.1090  -22.7060 N   0  0  0  0  0  0
  -30.3242  -22.2318  -25.5447 N   0  0  0  0  0  0
  -31.4921  -21.6136  -26.0139 O   0  0  0  0  0  0
  -32.3583  -22.6246  -26.4997 C   0  0  0  0  0  0
  -27.9685  -23.1460  -24.4124 O   0  0  0  0  0  0
  -24.2557  -19.8235  -22.3986 S   0  0  0  0  0  0
  -22.8717  -20.2702  -23.4755 C   0  0  0  0  0  0
  -23.4378  -24.2544  -23.7136 C   0  0  0  0  0  0
  -24.3702  -24.8702  -24.2761 O   0  5  0  0  0  0
  -22.3308  -24.7482  -23.4046 O   0  0  0  0  0  0
  -22.7675  -21.8509  -26.8828 O   0  0  0  0  0  0
  -20.3071  -20.1865  -27.8377 H   0  0  0  0  0  0
  -21.9663  -19.9905  -28.4134 H   0  0  0  0  0  0
  -21.4076  -19.0552  -27.0320 H   0  0  0  0  0  0
  -20.5911  -22.0800  -23.7135 H   0  0  0  0  0  0
  -21.3910  -23.1046  -24.8842 H   0  0  0  0  0  0
  -25.6496  -20.8045  -24.1374 H   0  0  0  0  0  0
  -26.7156  -20.9689  -21.2976 H   0  0  0  0  0  0
  -28.4933  -20.5261  -22.7484 H   0  0  0  0  0  0
  -29.9888  -19.0233  -25.8204 H   0  0  0  0  0  0
  -31.1669  -18.9174  -20.3760 H   0  0  0  0  0  0
  -31.2684  -17.3513  -21.0595 H   0  0  0  0  0  0
  -33.2788  -22.1712  -26.8698 H   0  0  0  0  0  0
  -31.9063  -23.1873  -27.3165 H   0  0  0  0  0  0
  -32.6296  -23.3238  -25.7077 H   0  0  0  0  0  0
  -21.9565  -19.8724  -23.0367 H   0  0  0  0  0  0
  -23.0223  -19.7508  -24.4215 H   0  0  0  0  0  0
  1  2  1  0  0  0
  1 31  1  0  0  0
  1 32  1  0  0  0
  1 33  1  0  0  0
  2  3  1  0  0  0
  2 30  2  0  0  0
  3  4  1  0  0  0
  4  5  1  0  0  0
  4 34  1  0  0  0
  4 35  1  0  0  0
  5 26  1  0  0  0
  5  6  2  0  0  0
  6  7  1  0  0  0
  6 27  1  0  0  0
  7 10  1  0  0  0
  7  8  1  0  0  0
  8  9  1  0  0  0
  8 25  1  0  0  0
  8 36  1  0  0  0
  9 10  1  0  0  0
  9 12  1  0  0  0
  9 37  1  0  0  0
 10 11  2  0  0  0
 12 13  1  0  0  0
 12 38  1  0  0  0
 13 14  1  0  0  0
 13 24  2  0  0  0
 14 15  1  0  0  0
 14 21  2  3  0  0
 15 20  1  0  0  0
 15 16  2  0  0  0
 16 17  1  0  0  0
 16 39  1  0  0  0
 17 18  1  0  0  0
 18 19  1  0  0  0
 18 20  2  0  0  0
 19 40  1  0  0  0
 19 41  1  0  0  0
 21 22  1  0  0  0
 22 23  1  0  0  0
 23 42  1  0  0  0
 23 43  1  0  0  0
 23 44  1  0  0  0
 25 26  1  0  0  0
 26 45  1  0  0  0
 26 46  1  0  0  0
 27 28  1  0  0  0
 27 29  2  0  0  0
M  CHG  1  28  -1
M  END
> <s_m_entry_id>
27613

> <s_m_entry_name>
data_maestro.6

> <s_m_Source_Path>
C:\Users\olshana1\Git\GramNeg-Accumulation\Gram Negative Permeation - OmpF

> <s_m_Source_File>
data_maestro.csv

> <i_m_Source_File_Index>
6

> <s_m_job_name>
glide-dock_Nicaido_neutral

> <s_i_glide_gridfile>
3POX-grid

> <i_i_glide_lignum>
7

> <i_i_glide_rotatable_bonds>
9

> <r_i_docking_score>
-4.4501812968661

> <r_i_glide_ligand_efficiency>
-0.148339376562203

> <r_i_glide_ligand_efficiency_sa>
-0.460924932244443

> <r_i_glide_ligand_efficiency_ln>
-1.01112967925684

> <r_i_glide_gscore>
-4.4501812968661

> <r_i_glide_lipo>
-0.259950027467991

> <r_i_glide_hbond>
-0.755167396931602

> <r_i_glide_metal>
0

> <r_i_glide_rewards>
-0.290928316391884

> <r_i_glide_evdw>
-29.4586811065674

> <r_i_glide_ecoul>
-11.1248035430908

> <r_i_glide_erotb>
0.680611118548691

> <r_i_glide_esite>
-0.683092087831326

> <r_i_glide_emodel>
-59.5152525454332

> <r_i_glide_energy>
-40.5834846496582

> <r_i_glide_einternal>
9.22917175292969

> <i_i_glide_confnum>
213

> <i_i_glide_posenum>
222

> <r_i_glide_eff_state_penalty>
0

> <r_glide_res:A132_vdw>
-0.933033483813391

> <r_glide_res:A132_coul>
-37.976117320922

> <r_glide_res:A132_hbond>
-0.124286252033008

> <r_glide_res:A132_dist>
2.03616156262361

> <r_glide_res:A132_Eint>
-39.0334370567683

> <r_glide_res:A117_vdw>
-4.41809850729412

> <r_glide_res:A117_coul>
15.7751183295098

> <r_glide_res:A117_hbond>
0

> <r_glide_res:A117_dist>
3.16469506230667

> <r_glide_res:A117_Eint>
11.3570198222157

> <r_glide_res:A113_vdw>
-1.62075754150186

> <r_glide_res:A113_coul>
12.9268924541617

> <r_glide_res:A113_hbond>
-0.16

> <r_glide_res:A113_dist>
1.98926649880498

> <r_glide_res:A113_Eint>
11.1461349126598

> <r_glide_res:A82_vdw>
-2.20142840556082

> <r_glide_res:A82_coul>
-46.415920428442

> <r_glide_res:A82_hbond>
-0.102174791104022

> <r_glide_res:A82_dist>
2.30186594367878

> <r_glide_res:A82_Eint>
-48.7195236251068

> <r_glide_res:A42_vdw>
-2.42805456008368

> <r_glide_res:A42_coul>
-40.084117725055

> <r_glide_res:A42_hbond>
-0.126822571830703

> <r_glide_res:A42_dist>
2.0745476859061

> <r_glide_res:A42_Eint>
-42.6389948569694

> <r_glide_res:A16_vdw>
-1.60736310071738

> <r_glide_res:A16_coul>
-20.737725660983

> <r_glide_res:A16_hbond>
0

> <r_glide_res:A16_dist>
2.46525220832541

> <r_glide_res:A16_Eint>
-22.3450887617004

> <s_m_source_file>
ligprep_Nicaido_neutral.maegz

> <i_m_source_file_index>
6

> <i_lp_mmshare_version>
58128

> <i_f3d_flags>
0

> <s_lp_Force_Field>
S-OPLS

> <r_lp_Energy>
53.728996

> <b_lp_Chiralities_Consistent>
1

> <s_lp_Variant>
Cefotaxime-1

> <s_epik_input>
W0NIM11DKD1PKU9bQ0gyXUMoPUMxQyg9TylbT0hdKVtDSDJdU1tDQEBIXShOMTIpW0NASF0oQzI9TylbTkhdQyg9TykvQyg9Ti9PW0NIM10pYzNbY0hdc2MobjMpW05IMl0=

> <s_epik_cmdline>
J2VwaWtfcHl0aG9uJywgJy1waHQnLCAnMC4wJywgJy1waCcsICc3LjQnLCAnLW50JywgJy1tYScsICc1MDAnLCAnLWltYWUnLCAnPGluZmlsZS5tYWU+JywgJy1vbWFlJywgJzxvdXRmaWxlLm1hZT4n

> <r_lp_tautomer_probability>
1

> <r_epik_Ionization_Penalty>
  0.0004

> <r_epik_Ionization_Penalty_Charging>
  0.0000

> <r_epik_Ionization_Penalty_Neutral>
  0.0004

> <r_epik_State_Penalty>
  0.0000

> <r_epik_Charging_Adjusted_Penalty>
5.45682606121274e-06

> <i_epik_Tot_Q>
-1

> <i_epik_Tot_abs_Q>
1

> <s_epik_Chemistry_Notes>
This compound has an ester and may undergo hydrolysis at high or low pH. This compound has an imine and may undergo hydrolysis. This compound contains an acetal/aminal-like group ( X-CH(R)-Y where X, Y are N, S, or O) that may be acid/base labile, releasing an aldehyde.

> <s_m_subgroup_title>
glide-dock_Nicaido_neutral_pv1

> <s_m_subgroupid>
glide-dock_Nicaido_neutral_pv1

> <b_m_subgroup_collapsed>
0

$$$$
Cefmetazole
                    3D
 Schrodinger Suite 2022-2.
 46 48  0  0  1  0            999 V2000
  -30.8100  -19.4009  -23.4451 C   0  0  0  0  0  0
  -30.0119  -20.4542  -24.0432 N   0  0  0  0  0  0
  -29.7950  -21.7261  -23.6804 C   0  0  0  0  0  0
  -30.5333  -22.5000  -22.2767 S   0  0  0  0  0  0
  -29.3898  -22.0739  -20.9082 C   0  0  0  0  0  0
  -28.0917  -21.3558  -21.2841 C   0  0  0  0  0  0
  -26.9727  -22.0067  -21.7020 C   0  0  0  0  0  0
  -25.7865  -21.3404  -22.0654 N   0  0  0  0  0  0
  -25.7306  -19.9078  -22.2903 C   0  0  2  0  0  0
  -24.2070  -20.0735  -22.5063 C   0  0  1  0  0  0
  -23.4041  -19.6954  -21.3867 O   0  0  0  0  0  0
  -23.1121  -18.3059  -21.2840 C   0  0  0  0  0  0
  -24.4836  -21.6005  -22.4657 C   0  0  0  0  0  0
  -23.8769  -22.6262  -22.6938 O   0  0  0  0  0  0
  -23.7001  -19.5497  -23.7872 N   0  0  0  0  0  0
  -23.9384  -19.9498  -25.0509 C   0  0  0  0  0  0
  -23.1179  -19.2401  -26.1298 C   0  0  0  0  0  0
  -21.9700  -20.3355  -27.0281 S   0  0  0  0  0  0
  -20.9885  -21.0697  -25.6882 C   0  0  0  0  0  0
  -21.4121  -22.4557  -25.4226 C   0  0  0  0  0  0
  -21.7377  -23.5492  -25.2133 N   0  0  0  0  0  0
  -24.7298  -20.8403  -25.3647 O   0  0  0  0  0  0
  -26.4758  -19.1496  -20.8137 S   0  0  0  0  0  0
  -28.1286  -19.8401  -21.0788 C   0  0  0  0  0  0
  -26.8532  -23.5492  -21.6428 C   0  0  0  0  0  0
  -27.5694  -24.2300  -22.4131 O   0  5  0  0  0  0
  -26.0264  -23.9818  -20.8132 O   0  0  0  0  0  0
  -29.0430  -22.3452  -24.5866 N   0  0  0  0  0  0
  -28.7683  -21.3637  -25.5180 N   0  0  0  0  0  0
  -29.3483  -20.2419  -25.2067 N   0  0  0  0  0  0
  -31.7824  -19.3539  -23.9359 H   0  0  0  0  0  0
  -30.9602  -19.5932  -22.3821 H   0  0  0  0  0  0
  -30.3059  -18.4394  -23.5572 H   0  0  0  0  0  0
  -29.1687  -22.9910  -20.3634 H   0  0  0  0  0  0
  -29.9440  -21.4731  -20.1902 H   0  0  0  0  0  0
  -26.2781  -19.6335  -23.1952 H   0  0  0  0  0  0
  -22.6363  -18.1062  -20.3243 H   0  0  0  0  0  0
  -22.4232  -17.9818  -22.0646 H   0  0  0  0  0  0
  -24.0123  -17.6935  -21.3433 H   0  0  0  0  0  0
  -23.0736  -18.7638  -23.6957 H   0  0  0  0  0  0
  -22.5454  -18.4204  -25.6936 H   0  0  0  0  0  0
  -23.8031  -18.7849  -26.8456 H   0  0  0  0  0  0
  -21.0584  -20.4784  -24.7754 H   0  0  0  0  0  0
  -19.9411  -21.0970  -25.9896 H   0  0  0  0  0  0
  -28.5698  -19.3532  -21.9443 H   0  0  0  0  0  0
  -28.7395  -19.5814  -20.2119 H   0  0  0  0  0  0
  1  2  1  0  0  0
  1 31  1  0  0  0
  1 32  1  0  0  0
  1 33  1  0  0  0
  2 30  1  0  0  0
  2  3  1  0  0  0
  3  4  1  0  0  0
  3 28  2  0  0  0
  4  5  1  0  0  0
  5  6  1  0  0  0
  5 34  1  0  0  0
  5 35  1  0  0  0
  6 24  1  0  0  0
  6  7  2  0  0  0
  7  8  1  0  0  0
  7 25  1  0  0  0
  8 13  1  0  0  0
  8  9  1  0  0  0
  9 10  1  0  0  0
  9 23  1  0  0  0
  9 36  1  0  0  0
 10 11  1  0  0  0
 10 13  1  0  0  0
 10 15  1  0  0  0
 11 12  1  0  0  0
 12 37  1  0  0  0
 12 38  1  0  0  0
 12 39  1  0  0  0
 13 14  2  0  0  0
 15 16  1  0  0  0
 15 40  1  0  0  0
 16 17  1  0  0  0
 16 22  2  0  0  0
 17 18  1  0  0  0
 17 41  1  0  0  0
 17 42  1  0  0  0
 18 19  1  0  0  0
 19 20  1  0  0  0
 19 43  1  0  0  0
 19 44  1  0  0  0
 20 21  3  0  0  0
 23 24  1  0  0  0
 24 45  1  0  0  0
 24 46  1  0  0  0
 25 26  1  0  0  0
 25 27  2  0  0  0
 28 29  1  0  0  0
 29 30  2  0  0  0
M  CHG  1  26  -1
M  END
> <s_m_entry_id>
27614

> <s_m_entry_name>
data_maestro.3

> <s_m_Source_Path>
C:\Users\olshana1\Git\GramNeg-Accumulation\Gram Negative Permeation - OmpF

> <s_m_Source_File>
data_maestro.csv

> <i_m_Source_File_Index>
3

> <s_m_job_name>
glide-dock_Nicaido_neutral

> <s_i_glide_gridfile>
3POX-grid

> <i_i_glide_lignum>
3

> <i_i_glide_rotatable_bonds>
10

> <r_i_docking_score>
-4.44805269232219

> <r_i_glide_ligand_efficiency>
-0.148268423077406

> <r_i_glide_ligand_efficiency_sa>
-0.46070446327032

> <r_i_glide_ligand_efficiency_ln>
-1.01064603711146

> <r_i_glide_gscore>
-4.44805269232219

> <r_i_glide_lipo>
-0.272949637769593

> <r_i_glide_hbond>
-0.4

> <r_i_glide_metal>
0

> <r_i_glide_rewards>
-0.200796319041809

> <r_i_glide_evdw>
-29.9240303039551

> <r_i_glide_ecoul>
-12.9588298797607

> <r_i_glide_erotb>
0.638850535935238

> <r_i_glide_esite>
-0.773131274284158

> <r_i_glide_emodel>
-58.0256814916725

> <r_i_glide_energy>
-42.8828601837158

> <r_i_glide_einternal>
18.5272636413574

> <i_i_glide_confnum>
235

> <i_i_glide_posenum>
41

> <r_i_glide_eff_state_penalty>
0

> <r_glide_res:A132_vdw>
0.31811854719744

> <r_glide_res:A132_coul>
-52.872307390551

> <r_glide_res:A132_hbond>
-0.2

> <r_glide_res:A132_dist>
1.74534776712086

> <r_glide_res:A132_Eint>
-52.7541888433536

> <r_glide_res:A117_vdw>
-4.07559723497664

> <r_glide_res:A117_coul>
8.73339377572733

> <r_glide_res:A117_hbond>
0

> <r_glide_res:A117_dist>
2.59956577016451

> <r_glide_res:A117_Eint>
4.65779654075068

> <r_glide_res:A113_vdw>
-2.5058774656754

> <r_glide_res:A113_coul>
18.8200147155387

> <r_glide_res:A113_hbond>
0

> <r_glide_res:A113_dist>
2.40471884999849

> <r_glide_res:A113_Eint>
16.3141372498633

> <r_glide_res:A82_vdw>
0.776927324286502

> <r_glide_res:A82_coul>
-54.2831524881662

> <r_glide_res:A82_hbond>
-0.2

> <r_glide_res:A82_dist>
1.65130334008167

> <r_glide_res:A82_Eint>
-53.7062251638797

> <r_glide_res:A42_vdw>
-2.45622246596923

> <r_glide_res:A42_coul>
-41.0123949486017

> <r_glide_res:A42_hbond>
0

> <r_glide_res:A42_dist>
2.40559983923513

> <r_glide_res:A42_Eint>
-43.4686174145709

> <r_glide_res:A16_vdw>
-0.825186784467755

> <r_glide_res:A16_coul>
-22.983877216709

> <r_glide_res:A16_hbond>
0

> <r_glide_res:A16_dist>
3.02211134043822

> <r_glide_res:A16_Eint>
-23.8090640011768

> <s_m_source_file>
ligprep_Nicaido_neutral.maegz

> <i_m_source_file_index>
3

> <i_lp_mmshare_version>
58128

> <i_f3d_flags>
0

> <s_lp_Force_Field>
S-OPLS

> <r_lp_Energy>
32.161431

> <b_lp_Chiralities_Consistent>
1

> <s_lp_Variant>
Cefmetazole-1

> <s_epik_input>
bjFubmMobjFbQ0gzXSlTW0NIMl1DKD1DMkMoPU8pW09IXSlbQ0gyXVNbQ0BIXShOMjMpW0NAXShDMz1PKShPW0NIM10pW05IXUMoPU8pW0NIMl1TW0NIMl1DI04=

> <s_epik_cmdline>
J2VwaWtfcHl0aG9uJywgJy1waHQnLCAnMC4wJywgJy1waCcsICc3LjQnLCAnLW50JywgJy1tYScsICc1MDAnLCAnLWltYWUnLCAnPGluZmlsZS5tYWU+JywgJy1vbWFlJywgJzxvdXRmaWxlLm1hZT4n

> <r_lp_tautomer_probability>
1

> <r_epik_Ionization_Penalty>
  0.0000

> <r_epik_Ionization_Penalty_Charging>
  0.0000

> <r_epik_Ionization_Penalty_Neutral>
  0.0000

> <r_epik_State_Penalty>
  0.0000

> <r_epik_Charging_Adjusted_Penalty>
8.27330724987756e-06

> <i_epik_Tot_Q>
-1

> <i_epik_Tot_abs_Q>
1

> <s_epik_Chemistry_Notes>
This compound contains an acetal/aminal-like group ( X-CH(R)-Y where X, Y are N, S, or O) that may be acid/base labile, releasing an aldehyde.

> <s_m_subgroup_title>
glide-dock_Nicaido_neutral_pv1

> <s_m_subgroupid>
glide-dock_Nicaido_neutral_pv1

> <b_m_subgroup_collapsed>
0

$$$$
Aztreonam
                    3D
 Schrodinger Suite 2022-2.
 43 44  0  0  1  0            999 V2000
  -25.5140  -21.1220  -24.6905 C   0  0  0  0  0  0
  -25.6686  -21.6932  -23.2745 C   0  0  1  0  0  0
  -27.0662  -21.8953  -22.6283 C   0  0  2  0  0  0
  -26.6173  -23.3579  -22.4155 C   0  0  0  0  0  0
  -25.5060  -23.1431  -23.2013 N   0  0  0  0  0  0
  -24.0750  -23.9603  -23.5115 S   0  0  0  0  0  0
  -24.3694  -24.7931  -24.6908 O   0  0  0  0  0  0
  -23.8414  -24.7516  -22.2937 O   0  5  0  0  0  0
  -23.0607  -22.9251  -23.7504 O   0  0  0  0  0  0
  -27.0265  -24.3408  -21.8330 O   0  0  0  0  0  0
  -28.1764  -21.6977  -23.5779 N   0  0  0  0  0  0
  -29.2643  -22.4769  -23.7819 C   0  0  0  0  0  0
  -30.2394  -21.9185  -24.8165 C   0  0  0  0  0  0
  -30.2284  -20.4500  -24.9636 C   0  0  0  0  0  0
  -30.5430  -19.6181  -23.9144 C   0  0  0  0  0  0
  -30.5314  -17.9495  -24.3924 S   0  0  0  0  0  0
  -30.0974  -18.4545  -26.0173 C   0  0  0  0  0  0
  -29.9117  -17.5452  -27.0376 N   0  0  0  0  0  0
  -29.9676  -19.7720  -26.1602 N   0  0  0  0  0  0
  -31.0383  -22.5733  -25.5647 N   0  0  0  0  0  0
  -31.0230  -23.9730  -25.3944 O   0  0  0  0  0  0
  -32.1514  -24.5807  -26.0518 C   0  0  0  0  0  0
  -32.0379  -24.4508  -27.5963 C   0  0  0  0  0  0
  -31.1690  -25.1496  -28.1712 O   0  5  0  0  0  0
  -32.7653  -23.6118  -28.1781 O   0  0  0  0  0  0
  -32.0846  -26.0743  -25.6711 C   0  0  0  0  0  0
  -33.4885  -23.9950  -25.5285 C   0  0  0  0  0  0
  -29.4648  -23.5498  -23.2129 O   0  0  0  0  0  0
  -25.6816  -20.0441  -24.6867 H   0  0  0  0  0  0
  -24.5111  -21.2812  -25.0878 H   0  0  0  0  0  0
  -26.2190  -21.5496  -25.4007 H   0  0  0  0  0  0
  -24.9777  -21.2294  -22.5666 H   0  0  0  0  0  0
  -27.1793  -21.3168  -21.7101 H   0  0  0  0  0  0
  -28.1368  -20.8280  -24.0896 H   0  0  0  0  0  0
  -30.7959  -19.8788  -22.8943 H   0  0  0  0  0  0
  -29.2558  -17.7716  -27.7689 H   0  0  0  0  0  0
  -29.8782  -16.5645  -26.7731 H   0  0  0  0  0  0
  -32.9103  -26.6338  -26.1133 H   0  0  0  0  0  0
  -31.1641  -26.5449  -26.0135 H   0  0  0  0  0  0
  -32.1428  -26.2046  -24.5904 H   0  0  0  0  0  0
  -34.3408  -24.5337  -25.9443 H   0  0  0  0  0  0
  -33.5481  -24.0714  -24.4421 H   0  0  0  0  0  0
  -33.6192  -22.9444  -25.7881 H   0  0  0  0  0  0
  1  2  1  0  0  0
  1 29  1  0  0  0
  1 30  1  0  0  0
  1 31  1  0  0  0
  2  5  1  0  0  0
  2  3  1  0  0  0
  2 32  1  0  0  0
  3  4  1  0  0  0
  3 11  1  0  0  0
  3 33  1  0  0  0
  4  5  1  0  0  0
  4 10  2  0  0  0
  5  6  1  0  0  0
  6  7  2  0  0  0
  6  8  1  0  0  0
  6  9  2  0  0  0
 11 12  1  0  0  0
 11 34  1  0  0  0
 12 13  1  0  0  0
 12 28  2  0  0  0
 13 14  1  0  0  0
 13 20  2  3  0  0
 14 19  1  0  0  0
 14 15  2  0  0  0
 15 16  1  0  0  0
 15 35  1  0  0  0
 16 17  1  0  0  0
 17 18  1  0  0  0
 17 19  2  0  0  0
 18 36  1  0  0  0
 18 37  1  0  0  0
 20 21  1  0  0  0
 21 22  1  0  0  0
 22 23  1  0  0  0
 22 26  1  0  0  0
 22 27  1  0  0  0
 23 24  1  0  0  0
 23 25  2  0  0  0
 26 38  1  0  0  0
 26 39  1  0  0  0
 26 40  1  0  0  0
 27 41  1  0  0  0
 27 42  1  0  0  0
 27 43  1  0  0  0
M  CHG  2   8  -1  24  -1
M  END
> <s_m_entry_id>
27615

> <s_m_entry_name>
data_maestro.21

> <s_m_Source_Path>
C:\Users\olshana1\Git\GramNeg-Accumulation\Gram Negative Permeation - OmpF

> <s_m_Source_File>
data_maestro.csv

> <i_m_Source_File_Index>
21

> <s_m_job_name>
glide-dock_Nicaido_neutral

> <s_i_glide_gridfile>
3POX-grid

> <i_i_glide_lignum>
27

> <i_i_glide_rotatable_bonds>
8

> <r_i_docking_score>
-4.44441808929233

> <r_i_glide_ligand_efficiency>
-0.158729217474726

> <r_i_glide_ligand_efficiency_sa>
-0.481995390762838

> <r_i_glide_ligand_efficiency_ln>
-1.02590218879408

> <r_i_glide_gscore>
-4.44441808929233

> <r_i_glide_lipo>
0

> <r_i_glide_hbond>
-0.865571438223379

> <r_i_glide_metal>
0

> <r_i_glide_rewards>
-0.446642583540018

> <r_i_glide_evdw>
-21.6569709777832

> <r_i_glide_ecoul>
-11.7066841125488

> <r_i_glide_erotb>
0.635830109179744

> <r_i_glide_esite>
-0.929183010937192

> <r_i_glide_emodel>
-57.1243814101946

> <r_i_glide_energy>
-33.363655090332

> <r_i_glide_einternal>
6.82693481445313

> <i_i_glide_confnum>
17

> <i_i_glide_posenum>
238

> <r_i_glide_eff_state_penalty>
0

> <r_glide_res:A132_vdw>
1.17953501133961

> <r_glide_res:A132_coul>
-59.68470360198

> <r_glide_res:A132_hbond>
-0.115392073750525

> <r_glide_res:A132_dist>
1.97844702907213

> <r_glide_res:A132_Eint>
-58.6205606643909

> <r_glide_res:A117_vdw>
-3.60838344748113

> <r_glide_res:A117_coul>
30.2119231656146

> <r_glide_res:A117_hbond>
0

> <r_glide_res:A117_dist>
2.77131092829454

> <r_glide_res:A117_Eint>
26.6035397181335

> <r_glide_res:A113_vdw>
-0.723287407884891

> <r_glide_res:A113_coul>
31.2536980958379

> <r_glide_res:A113_hbond>
0

> <r_glide_res:A113_dist>
4.23837072077342

> <r_glide_res:A113_Eint>
30.530410687953

> <r_glide_res:A82_vdw>
-2.94426245857994

> <r_glide_res:A82_coul>
-73.7741388007792

> <r_glide_res:A82_hbond>
-0.287578567939341

> <r_glide_res:A82_dist>
1.84433856562354

> <r_glide_res:A82_Eint>
-77.0059798272985

> <r_glide_res:A42_vdw>
-3.40625229279505

> <r_glide_res:A42_coul>
-75.4899047787538

> <r_glide_res:A42_hbond>
-0.169152210498638

> <r_glide_res:A42_dist>
1.75657045180103

> <r_glide_res:A42_Eint>
-79.0653092820475

> <r_glide_res:A16_vdw>
-2.52251093990526

> <r_glide_res:A16_coul>
-67.3171480595842

> <r_glide_res:A16_hbond>
-0.0205970791444107

> <r_glide_res:A16_dist>
2.42349612433349

> <r_glide_res:A16_Eint>
-69.8602560786339

> <s_m_source_file>
ligprep_Nicaido_neutral.maegz

> <i_m_source_file_index>
21

> <i_lp_mmshare_version>
58128

> <i_f3d_flags>
0

> <s_lp_Force_Field>
S-OPLS

> <r_lp_Energy>
50.237147

> <b_lp_Chiralities_Consistent>
1

> <s_lp_Variant>
Aztreonam-2

> <s_epik_input>
Tz1TKD1PKShbT0hdKU4xQyg9TylbQ0BASF0oW0NAQEhdMVtDSDNdKVtOSF1DKD1PKS9DKGMyW2NIXXNjKG4yKVtOSDJdKT1OL09DKFtDSDNdKShbQ0gzXSlDKD1PKVtPSF0=

> <s_epik_cmdline>
J2VwaWtfcHl0aG9uJywgJy1waHQnLCAnMC4wJywgJy1waCcsICc3LjQnLCAnLW50JywgJy1tYScsICc1MDAnLCAnLWltYWUnLCAnPGluZmlsZS5tYWU+JywgJy1vbWFlJywgJzxvdXRmaWxlLm1hZT4n

> <r_lp_tautomer_probability>
1

> <r_epik_Ionization_Penalty>
  0.0004

> <r_epik_Ionization_Penalty_Charging>
  0.0000

> <r_epik_Ionization_Penalty_Neutral>
  0.0004

> <r_epik_State_Penalty>
  0.0000

> <r_epik_Charging_Adjusted_Penalty>
4.45674509427693e-05

> <i_epik_Tot_Q>
-2

> <i_epik_Tot_abs_Q>
2

> <s_epik_Chemistry_Notes>
This compound has an imine and may undergo hydrolysis.

> <s_m_subgroup_title>
glide-dock_Nicaido_neutral_pv1

> <s_m_subgroupid>
glide-dock_Nicaido_neutral_pv1

> <b_m_subgroup_collapsed>
0

$$$$
Piperacillin
                    3D
 Schrodinger Suite 2022-2.
 62 65  0  0  1  0            999 V2000
  -30.8127  -18.1596  -26.1803 C   0  0  0  0  0  0
  -29.3409  -18.4988  -26.4525 C   0  0  0  0  0  0
  -28.7993  -19.4112  -25.4366 N   0  0  0  0  0  0
  -28.0782  -18.7548  -24.3489 C   0  0  0  0  0  0
  -27.1552  -19.7010  -23.5712 C   0  0  0  0  0  0
  -27.7844  -21.0118  -23.3092 N   0  0  0  0  0  0
  -28.4618  -21.6262  -24.3158 C   0  0  0  0  0  0
  -28.9942  -20.7494  -25.4905 C   0  0  0  0  0  0
  -29.5815  -21.3180  -26.4136 O   0  0  0  0  0  0
  -28.6698  -22.8462  -24.3794 O   0  0  0  0  0  0
  -27.7698  -21.5396  -22.0559 C   0  0  0  0  0  0
  -26.6166  -21.3413  -21.3989 N   0  0  0  0  0  0
  -26.3977  -21.5941  -19.9758 C   0  0  2  0  0  0
  -25.3837  -20.5983  -19.4881 C   0  0  0  0  0  0
  -24.2230  -20.2542  -20.2294 C   0  0  0  0  0  0
  -23.2984  -19.3049  -19.7529 C   0  0  0  0  0  0
  -23.5135  -18.6727  -18.5163 C   0  0  0  0  0  0
  -24.6496  -19.0032  -17.7590 C   0  0  0  0  0  0
  -25.5645  -19.9592  -18.2404 C   0  0  0  0  0  0
  -25.8173  -23.0105  -19.7513 C   0  0  0  0  0  0
  -24.8682  -23.1991  -18.8201 N   0  0  0  0  0  0
  -24.2664  -24.4844  -18.4813 C   0  0  1  0  0  0
  -23.4867  -25.1461  -19.6388 C   0  0  2  0  0  0
  -22.2776  -24.9373  -18.8721 N   0  0  0  0  0  0
  -22.8973  -24.3413  -17.8055 C   0  0  0  0  0  0
  -22.4552  -23.8647  -16.7838 O   0  0  0  0  0  0
  -20.9671  -24.8133  -19.4659 C   0  0  2  0  0  0
  -21.2507  -24.0258  -20.7920 C   0  0  0  0  0  0
  -21.1496  -22.5106  -20.5263 C   0  0  0  0  0  0
  -22.9910  -24.4031  -21.2387 S   0  0  0  0  0  0
  -20.3153  -24.3827  -21.9661 C   0  0  0  0  0  0
  -20.3452  -26.2148  -19.6137 C   0  0  0  0  0  0
  -21.0394  -27.1441  -20.0865 O   0  5  0  0  0  0
  -19.1694  -26.3496  -19.2136 O   0  0  0  0  0  0
  -26.2623  -23.9506  -20.4135 O   0  0  0  0  0  0
  -28.6748  -22.2321  -21.5833 O   0  0  0  0  0  0
  -31.1930  -17.4656  -26.9304 H   0  0  0  0  0  0
  -31.4423  -19.0489  -26.1945 H   0  0  0  0  0  0
  -30.9285  -17.6803  -25.2074 H   0  0  0  0  0  0
  -28.7654  -17.5716  -26.4853 H   0  0  0  0  0  0
  -29.2402  -18.9326  -27.4466 H   0  0  0  0  0  0
  -27.4758  -17.9345  -24.7349 H   0  0  0  0  0  0
  -28.8140  -18.3247  -23.6689 H   0  0  0  0  0  0
  -26.8510  -19.1762  -22.6630 H   0  0  0  0  0  0
  -26.2414  -19.8680  -24.1439 H   0  0  0  0  0  0
  -25.9053  -20.7988  -21.8643 H   0  0  0  0  0  0
  -27.3339  -21.5006  -19.4205 H   0  0  0  0  0  0
  -24.0269  -20.7265  -21.1807 H   0  0  0  0  0  0
  -22.4259  -19.0580  -20.3397 H   0  0  0  0  0  0
  -22.8140  -17.9349  -18.1506 H   0  0  0  0  0  0
  -24.8321  -18.5130  -16.8136 H   0  0  0  0  0  0
  -26.4349  -20.1878  -17.6413 H   0  0  0  0  0  0
  -24.5491  -22.3884  -18.3056 H   0  0  0  0  0  0
  -24.9509  -25.1694  -17.9797 H   0  0  0  0  0  0
  -23.7153  -26.2038  -19.7644 H   0  0  0  0  0  0
  -20.3217  -24.2300  -18.8064 H   0  0  0  0  0  0
  -20.1358  -22.2233  -20.2455 H   0  0  0  0  0  0
  -21.8135  -22.1978  -19.7195 H   0  0  0  0  0  0
  -21.4218  -21.9327  -21.4100 H   0  0  0  0  0  0
  -19.2700  -24.2249  -21.6977 H   0  0  0  0  0  0
  -20.4282  -25.4216  -22.2753 H   0  0  0  0  0  0
  -20.5274  -23.7638  -22.8385 H   0  0  0  0  0  0
  1  2  1  0  0  0
  1 37  1  0  0  0
  1 38  1  0  0  0
  1 39  1  0  0  0
  2  3  1  0  0  0
  2 40  1  0  0  0
  2 41  1  0  0  0
  3  8  1  0  0  0
  3  4  1  0  0  0
  4  5  1  0  0  0
  4 42  1  0  0  0
  4 43  1  0  0  0
  5  6  1  0  0  0
  5 44  1  0  0  0
  5 45  1  0  0  0
  6  7  1  0  0  0
  6 11  1  0  0  0
  7  8  1  0  0  0
  7 10  2  0  0  0
  8  9  2  0  0  0
 11 12  1  0  0  0
 11 36  2  0  0  0
 12 13  1  0  0  0
 12 46  1  0  0  0
 13 14  1  0  0  0
 13 20  1  0  0  0
 13 47  1  0  0  0
 14 19  1  0  0  0
 14 15  2  0  0  0
 15 16  1  0  0  0
 15 48  1  0  0  0
 16 17  2  0  0  0
 16 49  1  0  0  0
 17 18  1  0  0  0
 17 50  1  0  0  0
 18 19  2  0  0  0
 18 51  1  0  0  0
 19 52  1  0  0  0
 20 21  1  0  0  0
 20 35  2  0  0  0
 21 22  1  0  0  0
 21 53  1  0  0  0
 22 25  1  0  0  0
 22 23  1  0  0  0
 22 54  1  0  0  0
 23 30  1  0  0  0
 23 24  1  0  0  0
 23 55  1  0  0  0
 24 25  1  0  0  0
 24 27  1  0  0  0
 25 26  2  0  0  0
 27 28  1  0  0  0
 27 32  1  0  0  0
 27 56  1  0  0  0
 28 29  1  0  0  0
 28 30  1  0  0  0
 28 31  1  0  0  0
 29 57  1  0  0  0
 29 58  1  0  0  0
 29 59  1  0  0  0
 31 60  1  0  0  0
 31 61  1  0  0  0
 31 62  1  0  0  0
 32 33  1  0  0  0
 32 34  2  0  0  0
M  CHG  1  33  -1
M  END
> <s_m_entry_id>
27616

> <s_m_entry_name>
data_maestro.11

> <s_m_Source_Path>
C:\Users\olshana1\Git\GramNeg-Accumulation\Gram Negative Permeation - OmpF

> <s_m_Source_File>
data_maestro.csv

> <i_m_Source_File_Index>
11

> <s_m_job_name>
glide-dock_Nicaido_neutral

> <s_i_glide_gridfile>
3POX-grid

> <i_i_glide_lignum>
15

> <i_i_glide_rotatable_bonds>
9

> <r_i_docking_score>
-4.44308215369664

> <r_i_glide_ligand_efficiency>
-0.123418948713796

> <r_i_glide_ligand_efficiency_sa>
-0.407520389301224

> <r_i_glide_ligand_efficiency_ln>
-0.969360487728938

> <r_i_glide_gscore>
-4.44308215369664

> <r_i_glide_lipo>
0

> <r_i_glide_hbond>
-0.628765762284223

> <r_i_glide_metal>
0

> <r_i_glide_rewards>
0.021532671356984

> <r_i_glide_evdw>
-32.5470237731934

> <r_i_glide_ecoul>
-13.4619035720825

> <r_i_glide_erotb>
0.461572583116075

> <r_i_glide_esite>
-0.650784921413429

> <r_i_glide_emodel>
-62.0199646152946

> <r_i_glide_energy>
-46.0089273452759

> <r_i_glide_einternal>
16.8027114868164

> <i_i_glide_confnum>
240

> <i_i_glide_posenum>
314

> <r_i_glide_eff_state_penalty>
0

> <r_glide_res:A132_vdw>
-1.87915200649117

> <r_glide_res:A132_coul>
-34.6664231750033

> <r_glide_res:A132_hbond>
-0.16

> <r_glide_res:A132_dist>
1.86645593292895

> <r_glide_res:A132_Eint>
-36.7055751814945

> <r_glide_res:A117_vdw>
-3.02559775822549

> <r_glide_res:A117_coul>
4.8888833361074

> <r_glide_res:A117_hbond>
0

> <r_glide_res:A117_dist>
2.25852307182957

> <r_glide_res:A117_Eint>
1.8632855778819

> <r_glide_res:A113_vdw>
-1.24542937986235

> <r_glide_res:A113_coul>
14.9470701886024

> <r_glide_res:A113_hbond>
0

> <r_glide_res:A113_dist>
3.97978084370419

> <r_glide_res:A113_Eint>
13.7016408087401

> <r_glide_res:A82_vdw>
-1.76069459535373

> <r_glide_res:A82_coul>
-27.8082837068449

> <r_glide_res:A82_hbond>
0

> <r_glide_res:A82_dist>
2.92578614759357

> <r_glide_res:A82_Eint>
-29.5689783021986

> <r_glide_res:A42_vdw>
-2.21392361068408

> <r_glide_res:A42_coul>
-22.6709614327483

> <r_glide_res:A42_hbond>
-0.0512796629718617

> <r_glide_res:A42_dist>
2.36851503370162

> <r_glide_res:A42_Eint>
-24.9361647064042

> <r_glide_res:A16_vdw>
-0.556981793290632

> <r_glide_res:A16_coul>
-19.7744264479155

> <r_glide_res:A16_hbond>
-0.16

> <r_glide_res:A16_dist>
1.85494605137367

> <r_glide_res:A16_Eint>
-20.4914082412062

> <s_m_source_file>
ligprep_Nicaido_neutral.maegz

> <i_m_source_file_index>
11

> <i_lp_mmshare_version>
58128

> <i_f3d_flags>
0

> <s_lp_Force_Field>
S-OPLS

> <r_lp_Energy>
67.572455

> <b_lp_Chiralities_Consistent>
1

> <s_lp_Variant>
Piperacillin-1

> <s_epik_input>
W0NIM11bQ0gyXU4xW0NIMl1bQ0gyXU4oQyg9TylDMT1PKUMoPU8pW05IXVtDQEhdKGMyW2NIXVtjSF1bY0hdW2NIXVtjSF0yKUMoPU8pW05IXVtDQEBIXTNDKD1PKU4oW0NAQEhdMzQpW0NASF0oQyhTNCkoW0NIM10pW0NIM10pQyg9TylbT0hd

> <s_epik_cmdline>
J2VwaWtfcHl0aG9uJywgJy1waHQnLCAnMC4wJywgJy1waCcsICc3LjQnLCAnLW50JywgJy1tYScsICc1MDAnLCAnLWltYWUnLCAnPGluZmlsZS5tYWU+JywgJy1vbWFlJywgJzxvdXRmaWxlLm1hZT4n

> <r_lp_tautomer_probability>
1

> <r_epik_Ionization_Penalty>
  0.0049

> <r_epik_Ionization_Penalty_Charging>
  0.0000

> <r_epik_Ionization_Penalty_Neutral>
  0.0049

> <r_epik_State_Penalty>
  0.0000

> <r_epik_Charging_Adjusted_Penalty>
1.13204004886318e-05

> <i_epik_Tot_Q>
-1

> <i_epik_Tot_abs_Q>
1

> <s_epik_Chemistry_Notes>
This compound contains an acetal/aminal-like group ( X-CH(R)-Y where X, Y are N, S, or O) that may be acid/base labile, releasing an aldehyde.

> <s_m_subgroup_title>
glide-dock_Nicaido_neutral_pv1

> <s_m_subgroupid>
glide-dock_Nicaido_neutral_pv1

> <b_m_subgroup_collapsed>
0

$$$$
Aztreonam
                    3D
 Schrodinger Suite 2022-2.
 43 44  0  0  1  0            999 V2000
  -31.1295  -23.7078  -23.5923 C   0  0  0  0  0  0
  -31.4258  -22.2414  -23.9310 C   0  0  1  0  0  0
  -30.3077  -21.1687  -23.9099 C   0  0  2  0  0  0
  -30.2896  -21.3539  -25.4591 C   0  0  0  0  0  0
  -31.4948  -22.0095  -25.3691 N   0  0  0  0  0  0
  -32.4509  -22.8994  -26.4025 S   0  0  0  0  0  0
  -33.6082  -23.3122  -25.5962 O   0  0  0  0  0  0
  -31.5693  -24.0003  -26.8248 O   0  5  0  0  0  0
  -32.7694  -21.9533  -27.4838 O   0  0  0  0  0  0
  -29.5687  -21.1364  -26.4121 O   0  0  0  0  0  0
  -29.1559  -21.6099  -23.0942 N   0  0  0  0  0  0
  -27.9856  -22.1768  -23.4620 C   0  0  0  0  0  0
  -27.1067  -22.6426  -22.2922 C   0  0  0  0  0  0
  -27.6607  -22.5091  -20.9335 C   0  0  0  0  0  0
  -27.4276  -21.4049  -20.1479 C   0  0  0  0  0  0
  -27.9688  -21.6594  -18.5098 S   0  0  0  0  0  0
  -28.5412  -23.2519  -18.9883 C   0  0  0  0  0  0
  -29.1688  -24.1062  -18.1039 N   0  0  0  0  0  0
  -28.3163  -23.5495  -20.2664 N   0  0  0  0  0  0
  -25.9629  -23.2008  -22.3428 N   0  0  0  0  0  0
  -25.5107  -23.5587  -23.6199 O   0  0  0  0  0  0
  -24.0845  -23.7219  -23.6264 C   0  0  0  0  0  0
  -23.7305  -24.6652  -24.7947 C   0  0  0  0  0  0
  -24.3681  -25.7442  -24.8772 O   0  5  0  0  0  0
  -22.7733  -24.3552  -25.5379 O   0  0  0  0  0  0
  -23.4793  -22.3166  -23.8445 C   0  0  0  0  0  0
  -23.4934  -24.3764  -22.3471 C   0  0  0  0  0  0
  -27.6497  -22.3494  -24.6336 O   0  0  0  0  0  0
  -30.9023  -23.8265  -22.5325 H   0  0  0  0  0  0
  -31.9812  -24.3522  -23.8111 H   0  0  0  0  0  0
  -30.2819  -24.0795  -24.1643 H   0  0  0  0  0  0
  -32.3359  -21.8786  -23.4498 H   0  0  0  0  0  0
  -30.6894  -20.1956  -23.5947 H   0  0  0  0  0  0
  -29.2971  -21.4924  -22.0995 H   0  0  0  0  0  0
  -26.9275  -20.4819  -20.4055 H   0  0  0  0  0  0
  -29.8876  -24.6798  -18.5160 H   0  0  0  0  0  0
  -29.5224  -23.6343  -17.2821 H   0  0  0  0  0  0
  -22.3897  -22.3454  -23.8855 H   0  0  0  0  0  0
  -23.8349  -21.8737  -24.7760 H   0  0  0  0  0  0
  -23.7542  -21.6369  -23.0376 H   0  0  0  0  0  0
  -22.4258  -24.5671  -22.4635 H   0  0  0  0  0  0
  -23.5940  -23.7343  -21.4712 H   0  0  0  0  0  0
  -23.9724  -25.3291  -22.1243 H   0  0  0  0  0  0
  1  2  1  0  0  0
  1 29  1  0  0  0
  1 30  1  0  0  0
  1 31  1  0  0  0
  2  5  1  0  0  0
  2  3  1  0  0  0
  2 32  1  0  0  0
  3  4  1  0  0  0
  3 11  1  0  0  0
  3 33  1  0  0  0
  4  5  1  0  0  0
  4 10  2  0  0  0
  5  6  1  0  0  0
  6  7  2  0  0  0
  6  8  1  0  0  0
  6  9  2  0  0  0
 11 12  1  0  0  0
 11 34  1  0  0  0
 12 13  1  0  0  0
 12 28  2  0  0  0
 13 14  1  0  0  0
 13 20  2  3  0  0
 14 19  1  0  0  0
 14 15  2  0  0  0
 15 16  1  0  0  0
 15 35  1  0  0  0
 16 17  1  0  0  0
 17 18  1  0  0  0
 17 19  2  0  0  0
 18 36  1  0  0  0
 18 37  1  0  0  0
 20 21  1  0  0  0
 21 22  1  0  0  0
 22 23  1  0  0  0
 22 26  1  0  0  0
 22 27  1  0  0  0
 23 24  1  0  0  0
 23 25  2  0  0  0
 26 38  1  0  0  0
 26 39  1  0  0  0
 26 40  1  0  0  0
 27 41  1  0  0  0
 27 42  1  0  0  0
 27 43  1  0  0  0
M  CHG  2   8  -1  24  -1
M  END
> <s_m_entry_id>
27617

> <s_m_entry_name>
data_maestro.21

> <s_m_Source_Path>
C:\Users\olshana1\Git\GramNeg-Accumulation\Gram Negative Permeation - OmpF

> <s_m_Source_File>
data_maestro.csv

> <i_m_Source_File_Index>
21

> <s_m_job_name>
glide-dock_Nicaido_neutral

> <s_i_glide_gridfile>
3POX-grid

> <i_i_glide_lignum>
27

> <i_i_glide_rotatable_bonds>
8

> <r_i_docking_score>
-4.43648376719098

> <r_i_glide_ligand_efficiency>
-0.158445848828249

> <r_i_glide_ligand_efficiency_sa>
-0.481134916656927

> <r_i_glide_ligand_efficiency_ln>
-1.02407071429127

> <r_i_glide_gscore>
-4.43648376719098

> <r_i_glide_lipo>
0

> <r_i_glide_hbond>
-0.669068052300535

> <r_i_glide_metal>
0

> <r_i_glide_rewards>
-0.409661747128772

> <r_i_glide_evdw>
-21.8440799713135

> <r_i_glide_ecoul>
-13.468843460083

> <r_i_glide_erotb>
0.635830109179744

> <r_i_glide_esite>
-0.881053559363295

> <r_i_glide_emodel>
-54.2682984951692

> <r_i_glide_energy>
-35.3129234313965

> <r_i_glide_einternal>
16.1292190551758

> <i_i_glide_confnum>
105

> <i_i_glide_posenum>
281

> <r_i_glide_eff_state_penalty>
0

> <r_glide_res:A132_vdw>
-2.75375461337035

> <r_glide_res:A132_coul>
-50.1192029068405

> <r_glide_res:A132_hbond>
-0.134909748748052

> <r_glide_res:A132_dist>
2.16272562812987

> <r_glide_res:A132_Eint>
-53.0078672689589

> <r_glide_res:A117_vdw>
-0.943264546821369

> <r_glide_res:A117_coul>
38.2779014005886

> <r_glide_res:A117_hbond>
0

> <r_glide_res:A117_dist>
4.32298448851253

> <r_glide_res:A117_Eint>
37.3346368537673

> <r_glide_res:A113_vdw>
-1.78109484008683

> <r_glide_res:A113_coul>
23.7743983400127

> <r_glide_res:A113_hbond>
0

> <r_glide_res:A113_dist>
2.52861056640661

> <r_glide_res:A113_Eint>
21.9933034999259

> <r_glide_res:A82_vdw>
-2.7220519452298

> <r_glide_res:A82_coul>
-72.7783688631039

> <r_glide_res:A82_hbond>
-0.192585126145284

> <r_glide_res:A82_dist>
1.88679834410248

> <r_glide_res:A82_Eint>
-75.693005934479

> <r_glide_res:A42_vdw>
-2.78673663810056

> <r_glide_res:A42_coul>
-81.5409994564487

> <r_glide_res:A42_hbond>
-0.16

> <r_glide_res:A42_dist>
1.83962869020095

> <r_glide_res:A42_Eint>
-84.4877360945492

> <r_glide_res:A16_vdw>
0.970419274161051

> <r_glide_res:A16_coul>
-74.5698488413842

> <r_glide_res:A16_hbond>
-0.16

> <r_glide_res:A16_dist>
1.85472652530418

> <r_glide_res:A16_Eint>
-73.7594295672232

> <s_m_source_file>
ligprep_Nicaido_neutral.maegz

> <i_m_source_file_index>
21

> <i_lp_mmshare_version>
58128

> <i_f3d_flags>
0

> <s_lp_Force_Field>
S-OPLS

> <r_lp_Energy>
50.237147

> <b_lp_Chiralities_Consistent>
1

> <s_lp_Variant>
Aztreonam-2

> <s_epik_input>
Tz1TKD1PKShbT0hdKU4xQyg9TylbQ0BASF0oW0NAQEhdMVtDSDNdKVtOSF1DKD1PKS9DKGMyW2NIXXNjKG4yKVtOSDJdKT1OL09DKFtDSDNdKShbQ0gzXSlDKD1PKVtPSF0=

> <s_epik_cmdline>
J2VwaWtfcHl0aG9uJywgJy1waHQnLCAnMC4wJywgJy1waCcsICc3LjQnLCAnLW50JywgJy1tYScsICc1MDAnLCAnLWltYWUnLCAnPGluZmlsZS5tYWU+JywgJy1vbWFlJywgJzxvdXRmaWxlLm1hZT4n

> <r_lp_tautomer_probability>
1

> <r_epik_Ionization_Penalty>
  0.0004

> <r_epik_Ionization_Penalty_Charging>
  0.0000

> <r_epik_Ionization_Penalty_Neutral>
  0.0004

> <r_epik_State_Penalty>
  0.0000

> <r_epik_Charging_Adjusted_Penalty>
4.45674509427693e-05

> <i_epik_Tot_Q>
-2

> <i_epik_Tot_abs_Q>
2

> <s_epik_Chemistry_Notes>
This compound has an imine and may undergo hydrolysis.

> <s_m_subgroup_title>
glide-dock_Nicaido_neutral_pv1

> <s_m_subgroupid>
glide-dock_Nicaido_neutral_pv1

> <b_m_subgroup_collapsed>
0

$$$$
Cefotaxime
                    3D
 Schrodinger Suite 2022-2.
 46 48  0  0  1  0            999 V2000
  -18.8489  -22.8476  -24.7482 C   0  0  0  0  0  0
  -20.0603  -22.3607  -25.5293 C   0  0  0  0  0  0
  -21.0234  -23.2993  -25.6134 O   0  0  0  0  0  0
  -22.2423  -23.0265  -26.3014 C   0  0  0  0  0  0
  -23.2852  -22.4644  -25.3498 C   0  0  0  0  0  0
  -23.9289  -23.2382  -24.4380 C   0  0  0  0  0  0
  -24.8495  -22.7028  -23.5251 N   0  0  0  0  0  0
  -25.5684  -21.4699  -23.7815 C   0  0  1  0  0  0
  -26.2204  -21.6371  -22.3982 C   0  0  2  0  0  0
  -25.4832  -22.9958  -22.3338 C   0  0  0  0  0  0
  -25.4443  -23.9488  -21.5853 O   0  0  0  0  0  0
  -27.6869  -21.6645  -22.4866 N   0  0  0  0  0  0
  -28.5522  -22.6880  -22.6698 C   0  0  0  0  0  0
  -30.0143  -22.2764  -22.7101 C   0  0  0  0  0  0
  -30.2853  -20.8091  -22.7186 C   0  0  0  0  0  0
  -29.9952  -20.0211  -21.6284 C   0  0  0  0  0  0
  -30.3717  -18.3494  -21.9110 S   0  0  0  0  0  0
  -30.8972  -18.7829  -23.5265 C   0  0  0  0  0  0
  -31.3660  -17.8307  -24.4125 N   0  0  0  0  0  0
  -30.7892  -20.0823  -23.8056 N   0  0  0  0  0  0
  -30.9141  -23.1763  -22.7772 N   0  0  0  0  0  0
  -32.2087  -22.6456  -22.8246 O   0  0  0  0  0  0
  -33.1151  -23.6924  -22.5277 C   0  0  0  0  0  0
  -28.2302  -23.8730  -22.8131 O   0  0  0  0  0  0
  -24.3490  -20.1720  -24.1143 S   0  0  0  0  0  0
  -23.5273  -20.9633  -25.5223 C   0  0  0  0  0  0
  -23.6655  -24.7746  -24.3290 C   0  0  0  0  0  0
  -24.3689  -25.5116  -25.0575 O   0  5  0  0  0  0
  -22.7690  -25.1488  -23.5443 O   0  0  0  0  0  0
  -20.0982  -21.2305  -26.0152 O   0  0  0  0  0  0
  -18.3769  -23.6823  -25.2666 H   0  0  0  0  0  0
  -18.1162  -22.0458  -24.6476 H   0  0  0  0  0  0
  -19.1445  -23.1736  -23.7509 H   0  0  0  0  0  0
  -22.6112  -23.9596  -26.7277 H   0  0  0  0  0  0
  -22.0912  -22.3482  -27.1435 H   0  0  0  0  0  0
  -26.2635  -21.5836  -24.6147 H   0  0  0  0  0  0
  -25.8528  -20.8979  -21.6837 H   0  0  0  0  0  0
  -28.1135  -20.7521  -22.3762 H   0  0  0  0  0  0
  -29.5691  -20.3138  -20.6777 H   0  0  0  0  0  0
  -31.7405  -18.0813  -25.3134 H   0  0  0  0  0  0
  -31.5009  -16.8747  -24.1031 H   0  0  0  0  0  0
  -34.1357  -23.3111  -22.5636 H   0  0  0  0  0  0
  -33.0368  -24.5087  -23.2493 H   0  0  0  0  0  0
  -32.9443  -24.0880  -21.5237 H   0  0  0  0  0  0
  -22.5841  -20.4419  -25.6815 H   0  0  0  0  0  0
  -24.1312  -20.8083  -26.4158 H   0  0  0  0  0  0
  1  2  1  0  0  0
  1 31  1  0  0  0
  1 32  1  0  0  0
  1 33  1  0  0  0
  2  3  1  0  0  0
  2 30  2  0  0  0
  3  4  1  0  0  0
  4  5  1  0  0  0
  4 34  1  0  0  0
  4 35  1  0  0  0
  5 26  1  0  0  0
  5  6  2  0  0  0
  6  7  1  0  0  0
  6 27  1  0  0  0
  7 10  1  0  0  0
  7  8  1  0  0  0
  8  9  1  0  0  0
  8 25  1  0  0  0
  8 36  1  0  0  0
  9 10  1  0  0  0
  9 12  1  0  0  0
  9 37  1  0  0  0
 10 11  2  0  0  0
 12 13  1  0  0  0
 12 38  1  0  0  0
 13 14  1  0  0  0
 13 24  2  0  0  0
 14 15  1  0  0  0
 14 21  2  3  0  0
 15 20  1  0  0  0
 15 16  2  0  0  0
 16 17  1  0  0  0
 16 39  1  0  0  0
 17 18  1  0  0  0
 18 19  1  0  0  0
 18 20  2  0  0  0
 19 40  1  0  0  0
 19 41  1  0  0  0
 21 22  1  0  0  0
 22 23  1  0  0  0
 23 42  1  0  0  0
 23 43  1  0  0  0
 23 44  1  0  0  0
 25 26  1  0  0  0
 26 45  1  0  0  0
 26 46  1  0  0  0
 27 28  1  0  0  0
 27 29  2  0  0  0
M  CHG  1  28  -1
M  END
> <s_m_entry_id>
27618

> <s_m_entry_name>
data_maestro.6

> <s_m_Source_Path>
C:\Users\olshana1\Git\GramNeg-Accumulation\Gram Negative Permeation - OmpF

> <s_m_Source_File>
data_maestro.csv

> <i_m_Source_File_Index>
6

> <s_m_job_name>
glide-dock_Nicaido_neutral

> <s_i_glide_gridfile>
3POX-grid

> <i_i_glide_lignum>
7

> <i_i_glide_rotatable_bonds>
9

> <r_i_docking_score>
-4.43612974982751

> <r_i_glide_ligand_efficiency>
-0.147870991660917

> <r_i_glide_ligand_efficiency_sa>
-0.459469551455517

> <r_i_glide_ligand_efficiency_ln>
-1.0079370146658

> <r_i_glide_gscore>
-4.43612974982751

> <r_i_glide_lipo>
0

> <r_i_glide_hbond>
-0.836680165485919

> <r_i_glide_metal>
0

> <r_i_glide_rewards>
-0.294653182323686

> <r_i_glide_evdw>
-28.6440696716309

> <r_i_glide_ecoul>
-13.1080465316772

> <r_i_glide_erotb>
0.680611118548691

> <r_i_glide_esite>
-0.586997057233461

> <r_i_glide_emodel>
-59.6963011477073

> <r_i_glide_energy>
-41.7521162033081

> <r_i_glide_einternal>
11.9168138504028

> <i_i_glide_confnum>
162

> <i_i_glide_posenum>
317

> <r_i_glide_eff_state_penalty>
0

> <r_glide_res:A132_vdw>
-1.40685496497402

> <r_glide_res:A132_coul>
-39.1522921114219

> <r_glide_res:A132_hbond>
-0.146480460869427

> <r_glide_res:A132_dist>
1.96523747541304

> <r_glide_res:A132_Eint>
-40.7056275372653

> <r_glide_res:A117_vdw>
-3.78136425838948

> <r_glide_res:A117_coul>
18.2419302861753

> <r_glide_res:A117_hbond>
0

> <r_glide_res:A117_dist>
3.3299967964955

> <r_glide_res:A117_Eint>
14.4605660277858

> <r_glide_res:A113_vdw>
-2.02865912927785

> <r_glide_res:A113_coul>
11.2983852888782

> <r_glide_res:A113_hbond>
0

> <r_glide_res:A113_dist>
2.45149634063249

> <r_glide_res:A113_Eint>
9.26972615960032

> <r_glide_res:A82_vdw>
-1.8472388981594

> <r_glide_res:A82_coul>
-49.8142841121705

> <r_glide_res:A82_hbond>
-0.39411330711327

> <r_glide_res:A82_dist>
1.92412660771216

> <r_glide_res:A82_Eint>
-52.0556363174431

> <r_glide_res:A42_vdw>
-3.01067358407115

> <r_glide_res:A42_coul>
-30.6315017005333

> <r_glide_res:A42_hbond>
0

> <r_glide_res:A42_dist>
2.17533600336911

> <r_glide_res:A42_Eint>
-33.6421752846045

> <r_glide_res:A16_vdw>
-0.384298726698292

> <r_glide_res:A16_coul>
-17.8228732054676

> <r_glide_res:A16_hbond>
0

> <r_glide_res:A16_dist>
4.41063469187093

> <r_glide_res:A16_Eint>
-18.2071719321659

> <s_m_source_file>
ligprep_Nicaido_neutral.maegz

> <i_m_source_file_index>
6

> <i_lp_mmshare_version>
58128

> <i_f3d_flags>
0

> <s_lp_Force_Field>
S-OPLS

> <r_lp_Energy>
53.728996

> <b_lp_Chiralities_Consistent>
1

> <s_lp_Variant>
Cefotaxime-1

> <s_epik_input>
W0NIM11DKD1PKU9bQ0gyXUMoPUMxQyg9TylbT0hdKVtDSDJdU1tDQEBIXShOMTIpW0NASF0oQzI9TylbTkhdQyg9TykvQyg9Ti9PW0NIM10pYzNbY0hdc2MobjMpW05IMl0=

> <s_epik_cmdline>
J2VwaWtfcHl0aG9uJywgJy1waHQnLCAnMC4wJywgJy1waCcsICc3LjQnLCAnLW50JywgJy1tYScsICc1MDAnLCAnLWltYWUnLCAnPGluZmlsZS5tYWU+JywgJy1vbWFlJywgJzxvdXRmaWxlLm1hZT4n

> <r_lp_tautomer_probability>
1

> <r_epik_Ionization_Penalty>
  0.0004

> <r_epik_Ionization_Penalty_Charging>
  0.0000

> <r_epik_Ionization_Penalty_Neutral>
  0.0004

> <r_epik_State_Penalty>
  0.0000

> <r_epik_Charging_Adjusted_Penalty>
5.45682606121274e-06

> <i_epik_Tot_Q>
-1

> <i_epik_Tot_abs_Q>
1

> <s_epik_Chemistry_Notes>
This compound has an ester and may undergo hydrolysis at high or low pH. This compound has an imine and may undergo hydrolysis. This compound contains an acetal/aminal-like group ( X-CH(R)-Y where X, Y are N, S, or O) that may be acid/base labile, releasing an aldehyde.

> <s_m_subgroup_title>
glide-dock_Nicaido_neutral_pv1

> <s_m_subgroupid>
glide-dock_Nicaido_neutral_pv1

> <b_m_subgroup_collapsed>
0

$$$$
Moxalactam
                    3D
 Schrodinger Suite 2022-2.
 54 57  0  0  1  0            999 V2000
  -30.3700  -17.8264  -24.5046 C   0  0  0  0  0  0
  -30.0125  -19.1932  -24.8351 N   0  0  0  0  0  0
  -29.3094  -20.1218  -24.1723 C   0  0  0  0  0  0
  -28.6124  -19.8693  -22.5784 S   0  0  0  0  0  0
  -26.9989  -20.6598  -22.8302 C   0  0  0  0  0  0
  -26.4485  -21.1742  -21.5155 C   0  0  0  0  0  0
  -26.6958  -22.4082  -21.0203 C   0  0  0  0  0  0
  -27.5581  -23.5124  -21.7083 C   0  0  0  0  0  0
  -28.5238  -23.9496  -21.0501 O   0  5  0  0  0  0
  -27.1621  -23.9487  -22.8128 O   0  0  0  0  0  0
  -26.2318  -22.6916  -19.7377 N   0  0  0  0  0  0
  -25.7743  -21.6325  -18.8545 C   0  0  2  0  0  0
  -24.9113  -20.8164  -19.6397 O   0  0  0  0  0  0
  -25.6315  -20.1719  -20.6970 C   0  0  0  0  0  0
  -25.1582  -22.7560  -17.9960 C   0  0  1  0  0  0
  -26.0617  -23.7128  -18.8332 C   0  0  0  0  0  0
  -26.4361  -24.8680  -18.8139 O   0  0  0  0  0  0
  -23.7097  -22.9054  -18.1785 N   0  0  0  0  0  0
  -22.9904  -24.0375  -18.0879 C   0  0  0  0  0  0
  -21.4550  -23.8938  -17.8983 C   0  0  2  0  0  0
  -20.9795  -24.7492  -16.6848 C   0  0  0  0  0  0
  -21.5668  -25.8250  -16.4126 O   0  5  0  0  0  0
  -19.9604  -24.3710  -16.0585 O   0  0  0  0  0  0
  -21.0125  -22.4228  -17.7627 C   0  0  0  0  0  0
  -21.2289  -21.6830  -16.5730 C   0  0  0  0  0  0
  -20.8601  -20.3272  -16.4942 C   0  0  0  0  0  0
  -20.2696  -19.6920  -17.6019 C   0  0  0  0  0  0
  -19.9169  -18.3771  -17.5174 O   0  0  0  0  0  0
  -20.0472  -20.4165  -18.7892 C   0  0  0  0  0  0
  -20.4175  -21.7736  -18.8680 C   0  0  0  0  0  0
  -23.5133  -25.1494  -18.1928 O   0  0  0  0  0  0
  -25.6035  -22.7495  -16.6531 O   0  0  0  0  0  0
  -24.7674  -22.2111  -15.6505 C   0  0  0  0  0  0
  -29.2503  -21.2506  -24.8738 N   0  0  0  0  0  0
  -29.9675  -20.9696  -26.0131 N   0  0  0  0  0  0
  -30.4139  -19.7471  -26.0070 N   0  0  0  0  0  0
  -29.9658  -17.5428  -23.5338 H   0  0  0  0  0  0
  -31.4542  -17.7252  -24.4718 H   0  0  0  0  0  0
  -29.9757  -17.1497  -25.2620 H   0  0  0  0  0  0
  -27.0717  -21.4804  -23.5398 H   0  0  0  0  0  0
  -26.3116  -19.9392  -23.2738 H   0  0  0  0  0  0
  -26.6014  -21.0972  -18.3781 H   0  0  0  0  0  0
  -24.9133  -19.6657  -21.3420 H   0  0  0  0  0  0
  -26.2971  -19.4096  -20.2891 H   0  0  0  0  0  0
  -23.1914  -22.0384  -18.1908 H   0  0  0  0  0  0
  -20.9810  -24.3186  -18.7829 H   0  0  0  0  0  0
  -21.6754  -22.1529  -15.7096 H   0  0  0  0  0  0
  -21.0341  -19.7741  -15.5823 H   0  0  0  0  0  0
  -19.5686  -18.0197  -18.3193 H   0  0  0  0  0  0
  -19.5962  -19.9360  -19.6453 H   0  0  0  0  0  0
  -20.2500  -22.3127  -19.7892 H   0  0  0  0  0  0
  -25.3037  -22.3391  -14.7120 H   0  0  0  0  0  0
  -24.5582  -21.1546  -15.8184 H   0  0  0  0  0  0
  -23.8346  -22.7643  -15.5517 H   0  0  0  0  0  0
  1  2  1  0  0  0
  1 37  1  0  0  0
  1 38  1  0  0  0
  1 39  1  0  0  0
  2 36  1  0  0  0
  2  3  1  0  0  0
  3  4  1  0  0  0
  3 34  2  0  0  0
  4  5  1  0  0  0
  5  6  1  0  0  0
  5 40  1  0  0  0
  5 41  1  0  0  0
  6 14  1  0  0  0
  6  7  2  0  0  0
  7  8  1  0  0  0
  7 11  1  0  0  0
  8  9  1  0  0  0
  8 10  2  0  0  0
 11 16  1  0  0  0
 11 12  1  0  0  0
 12 13  1  0  0  0
 12 15  1  0  0  0
 12 42  1  0  0  0
 13 14  1  0  0  0
 14 43  1  0  0  0
 14 44  1  0  0  0
 15 16  1  0  0  0
 15 18  1  0  0  0
 15 32  1  0  0  0
 16 17  2  0  0  0
 18 19  1  0  0  0
 18 45  1  0  0  0
 19 20  1  0  0  0
 19 31  2  0  0  0
 20 21  1  0  0  0
 20 24  1  0  0  0
 20 46  1  0  0  0
 21 22  1  0  0  0
 21 23  2  0  0  0
 24 30  1  0  0  0
 24 25  2  0  0  0
 25 26  1  0  0  0
 25 47  1  0  0  0
 26 27  2  0  0  0
 26 48  1  0  0  0
 27 28  1  0  0  0
 27 29  1  0  0  0
 28 49  1  0  0  0
 29 30  2  0  0  0
 29 50  1  0  0  0
 30 51  1  0  0  0
 32 33  1  0  0  0
 33 52  1  0  0  0
 33 53  1  0  0  0
 33 54  1  0  0  0
 34 35  1  0  0  0
 35 36  2  0  0  0
M  CHG  2   9  -1  22  -1
M  END
> <s_m_entry_id>
27619

> <s_m_entry_name>
data_maestro.20

> <s_m_Source_Path>
C:\Users\olshana1\Git\GramNeg-Accumulation\Gram Negative Permeation - OmpF

> <s_m_Source_File>
data_maestro.csv

> <i_m_Source_File_Index>
20

> <s_m_job_name>
glide-dock_Nicaido_neutral

> <s_i_glide_gridfile>
3POX-grid

> <i_i_glide_lignum>
25

> <i_i_glide_rotatable_bonds>
11

> <r_i_docking_score>
-4.43591468840211

> <r_i_glide_ligand_efficiency>
-0.123219852455614

> <r_i_glide_ligand_efficiency_sa>
-0.406862987941968

> <r_i_glide_ligand_efficiency_ln>
-0.967796740444207

> <r_i_glide_gscore>
-4.43591468840211

> <r_i_glide_lipo>
-0.0220712059582332

> <r_i_glide_hbond>
-0.735626198181578

> <r_i_glide_metal>
0

> <r_i_glide_rewards>
0.0699763948601593

> <r_i_glide_evdw>
-29.5598430633545

> <r_i_glide_ecoul>
-13.155966758728

> <r_i_glide_erotb>
0.534860792752126

> <r_i_glide_esite>
-0.831667304897659

> <r_i_glide_emodel>
-69.5722942287676

> <r_i_glide_energy>
-42.7158098220825

> <r_i_glide_einternal>
8.17024707794189

> <i_i_glide_confnum>
184

> <i_i_glide_posenum>
167

> <r_i_glide_eff_state_penalty>
0

> <r_glide_res:A132_vdw>
-1.05258887607922

> <r_glide_res:A132_coul>
-71.2799820751926

> <r_glide_res:A132_hbond>
-0.223741793885593

> <r_glide_res:A132_dist>
1.85686024697209

> <r_glide_res:A132_Eint>
-72.5563127451575

> <r_glide_res:A117_vdw>
-3.41002596292078

> <r_glide_res:A117_coul>
27.5346731823618

> <r_glide_res:A117_hbond>
0

> <r_glide_res:A117_dist>
2.17920316990398

> <r_glide_res:A117_Eint>
24.124647219441

> <r_glide_res:A113_vdw>
-1.39519416070363

> <r_glide_res:A113_coul>
44.2424183184652

> <r_glide_res:A113_hbond>
0

> <r_glide_res:A113_dist>
4.43245279965511

> <r_glide_res:A113_Eint>
42.8472241577616

> <r_glide_res:A82_vdw>
3.78807276689744

> <r_glide_res:A82_coul>
-66.3763130031271

> <r_glide_res:A82_hbond>
-0.177483454681773

> <r_glide_res:A82_dist>
1.55496690936355

> <r_glide_res:A82_Eint>
-62.7657236909114

> <r_glide_res:A42_vdw>
-1.46657455205506

> <r_glide_res:A42_coul>
-45.6513550768142

> <r_glide_res:A42_hbond>
0

> <r_glide_res:A42_dist>
2.97959734400259

> <r_glide_res:A42_Eint>
-47.1179296288692

> <r_glide_res:A16_vdw>
-0.393271273053821

> <r_glide_res:A16_coul>
-35.2509974123613

> <r_glide_res:A16_hbond>
0

> <r_glide_res:A16_dist>
2.13994535624014

> <r_glide_res:A16_Eint>
-35.6442686854152

> <s_m_source_file>
ligprep_Nicaido_neutral.maegz

> <i_m_source_file_index>
20

> <i_lp_mmshare_version>
58128

> <i_f3d_flags>
0

> <s_lp_Force_Field>
S-OPLS

> <r_lp_Energy>
52.146636

> <b_lp_Chiralities_Consistent>
1

> <s_lp_Variant>
Moxalactam-1

> <s_epik_input>
bjFubmMobjFbQ0gzXSlTW0NIMl1DKD1DMkMoPU8pW09IXSlbQ0gyXU9bQ0BASF0oTjIzKVtDQF0oQzM9TykoT1tDSDNdKVtOSF1DKD1PKVtDQEhdKEMoPU8pW09IXSljNFtjSF1bY0hdYyhbT0hdKVtjSF1bY0hdNA==

> <s_epik_cmdline>
J2VwaWtfcHl0aG9uJywgJy1waHQnLCAnMC4wJywgJy1waCcsICc3LjQnLCAnLW50JywgJy1tYScsICc1MDAnLCAnLWltYWUnLCAnPGluZmlsZS5tYWU+JywgJy1vbWFlJywgJzxvdXRmaWxlLm1hZT4n

> <r_lp_tautomer_probability>
1

> <r_epik_Ionization_Penalty>
  0.0029

> <r_epik_Ionization_Penalty_Charging>
  0.0001

> <r_epik_Ionization_Penalty_Neutral>
  0.0029

> <r_epik_State_Penalty>
  0.0000

> <r_epik_Charging_Adjusted_Penalty>
5.78268703870383e-05

> <i_epik_Tot_Q>
-2

> <i_epik_Tot_abs_Q>
2

> <s_epik_Chemistry_Notes>
This compound contains an acetal/aminal-like group ( X-CH(R)-Y where X, Y are N, S, or O) that may be acid/base labile, releasing an aldehyde.

> <s_m_subgroup_title>
glide-dock_Nicaido_neutral_pv1

> <s_m_subgroupid>
glide-dock_Nicaido_neutral_pv1

> <b_m_subgroup_collapsed>
0

$$$$
Sulbenicillin
                    3D
 Schrodinger Suite 2022-2.
 43 45  0  0  1  0            999 V2000
  -33.9158  -18.6092  -24.2845 C   0  0  0  0  0  0
  -32.5859  -19.3896  -24.3510 C   0  0  0  0  0  0
  -32.1466  -19.8433  -25.7909 C   0  0  2  0  0  0
  -30.7195  -19.6190  -25.8079 N   0  0  0  0  0  0
  -30.0315  -18.6005  -25.0344 C   0  0  1  0  0  0
  -31.2267  -18.3494  -23.6848 S   0  0  0  0  0  0
  -28.8022  -19.5260  -25.0048 C   0  0  2  0  0  0
  -29.6491  -20.4633  -25.8842 C   0  0  0  0  0  0
  -29.5352  -21.5495  -26.4134 O   0  0  0  0  0  0
  -28.5422  -20.0682  -23.6703 N   0  0  0  0  0  0
  -27.8149  -21.1718  -23.4329 C   0  0  0  0  0  0
  -27.7949  -21.6922  -21.9824 C   0  0  2  0  0  0
  -26.6180  -21.1270  -21.1857 C   0  0  0  0  0  0
  -26.8538  -20.5264  -19.9291 C   0  0  0  0  0  0
  -25.7824  -20.0043  -19.1782 C   0  0  0  0  0  0
  -24.4679  -20.0704  -19.6761 C   0  0  0  0  0  0
  -24.2239  -20.6624  -20.9287 C   0  0  0  0  0  0
  -25.2921  -21.1926  -21.6772 C   0  0  0  0  0  0
  -27.7935  -23.5493  -21.9505 S   0  0  0  0  0  0
  -26.4844  -23.9502  -22.4872 O   0  0  0  0  0  0
  -28.9152  -23.9498  -22.8141 O   0  5  0  0  0  0
  -27.9679  -23.9495  -20.5449 O   0  0  0  0  0  0
  -27.2102  -21.7616  -24.3341 O   0  0  0  0  0  0
  -32.7692  -19.1719  -27.0302 C   0  0  0  0  0  0
  -32.7583  -17.9254  -27.1149 O   0  5  0  0  0  0
  -33.1691  -19.9477  -27.9314 O   0  0  0  0  0  0
  -32.6994  -20.6267  -23.4401 C   0  0  0  0  0  0
  -34.7331  -19.1757  -24.7313 H   0  0  0  0  0  0
  -34.1903  -18.3935  -23.2508 H   0  0  0  0  0  0
  -33.8498  -17.6474  -24.7944 H   0  0  0  0  0  0
  -32.3278  -20.9148  -25.8975 H   0  0  0  0  0  0
  -29.8700  -17.6784  -25.5973 H   0  0  0  0  0  0
  -27.9290  -19.0825  -25.4859 H   0  0  0  0  0  0
  -28.9903  -19.5957  -22.8968 H   0  0  0  0  0  0
  -28.7270  -21.3975  -21.5012 H   0  0  0  0  0  0
  -27.8557  -20.4598  -19.5305 H   0  0  0  0  0  0
  -25.9697  -19.5496  -18.2163 H   0  0  0  0  0  0
  -23.6515  -19.6633  -19.0985 H   0  0  0  0  0  0
  -23.2168  -20.7084  -21.3167 H   0  0  0  0  0  0
  -25.0865  -21.6492  -22.6344 H   0  0  0  0  0  0
  -33.4937  -21.2956  -23.7726 H   0  0  0  0  0  0
  -31.7681  -21.1958  -23.4251 H   0  0  0  0  0  0
  -32.9200  -20.3419  -22.4100 H   0  0  0  0  0  0
  1  2  1  0  0  0
  1 28  1  0  0  0
  1 29  1  0  0  0
  1 30  1  0  0  0
  2  6  1  0  0  0
  2  3  1  0  0  0
  2 27  1  0  0  0
  3  4  1  0  0  0
  3 24  1  0  0  0
  3 31  1  0  0  0
  4  8  1  0  0  0
  4  5  1  0  0  0
  5  6  1  0  0  0
  5  7  1  0  0  0
  5 32  1  0  0  0
  7  8  1  0  0  0
  7 10  1  0  0  0
  7 33  1  0  0  0
  8  9  2  0  0  0
 10 11  1  0  0  0
 10 34  1  0  0  0
 11 12  1  0  0  0
 11 23  2  0  0  0
 12 13  1  0  0  0
 12 19  1  0  0  0
 12 35  1  0  0  0
 13 18  1  0  0  0
 13 14  2  0  0  0
 14 15  1  0  0  0
 14 36  1  0  0  0
 15 16  2  0  0  0
 15 37  1  0  0  0
 16 17  1  0  0  0
 16 38  1  0  0  0
 17 18  2  0  0  0
 17 39  1  0  0  0
 18 40  1  0  0  0
 19 20  2  0  0  0
 19 21  1  0  0  0
 19 22  2  0  0  0
 24 25  1  0  0  0
 24 26  2  0  0  0
 27 41  1  0  0  0
 27 42  1  0  0  0
 27 43  1  0  0  0
M  CHG  2  21  -1  25  -1
M  END
> <s_m_entry_id>
27620

> <s_m_entry_name>
data_maestro.23

> <s_m_Source_Path>
C:\Users\olshana1\Git\GramNeg-Accumulation\Gram Negative Permeation - OmpF

> <s_m_Source_File>
data_maestro.csv

> <i_m_Source_File_Index>
23

> <s_m_job_name>
glide-dock_Nicaido_neutral

> <s_i_glide_gridfile>
3POX-grid

> <i_i_glide_lignum>
30

> <i_i_glide_rotatable_bonds>
6

> <r_i_docking_score>
-4.43308507555822

> <r_i_glide_ligand_efficiency>
-0.164188336131786

> <r_i_glide_ligand_efficiency_sa>
-0.49256500785422

> <r_i_glide_ligand_efficiency_ln>
-1.03194912047057

> <r_i_glide_gscore>
-4.43308507555822

> <r_i_glide_lipo>
0

> <r_i_glide_hbond>
-0.739484852474557

> <r_i_glide_metal>
0

> <r_i_glide_rewards>
-0.596397214134417

> <r_i_glide_evdw>
-22.3683204650879

> <r_i_glide_ecoul>
-11.1083993911743

> <r_i_glide_erotb>
0.347763984117939

> <r_i_glide_esite>
-0.660291061136641

> <r_i_glide_emodel>
-56.2123701071172

> <r_i_glide_energy>
-33.4767198562622

> <r_i_glide_einternal>
2.60111141204834

> <i_i_glide_confnum>
9

> <i_i_glide_posenum>
167

> <r_i_glide_eff_state_penalty>
0

> <r_glide_res:A132_vdw>
-0.297146514409832

> <r_glide_res:A132_coul>
-61.6950382096698

> <r_glide_res:A132_hbond>
0

> <r_glide_res:A132_dist>
1.76887309489437

> <r_glide_res:A132_Eint>
-61.9921847240796

> <r_glide_res:A117_vdw>
-4.09231225068517

> <r_glide_res:A117_coul>
40.0777156723723

> <r_glide_res:A117_hbond>
0

> <r_glide_res:A117_dist>
2.57675318361014

> <r_glide_res:A117_Eint>
35.9854034216871

> <r_glide_res:A113_vdw>
-1.80374112241385

> <r_glide_res:A113_coul>
41.8429414546926

> <r_glide_res:A113_hbond>
0

> <r_glide_res:A113_dist>
3.20768748347609

> <r_glide_res:A113_Eint>
40.0392003322787

> <r_glide_res:A82_vdw>
-0.180826892792961

> <r_glide_res:A82_coul>
-68.3017697980181

> <r_glide_res:A82_hbond>
-0.262431362457185

> <r_glide_res:A82_dist>
1.88680337925246

> <r_glide_res:A82_Eint>
-68.7450280532682

> <r_glide_res:A42_vdw>
-1.98396562458431

> <r_glide_res:A42_coul>
-61.9998802789667

> <r_glide_res:A42_hbond>
-0.174772632482844

> <r_glide_res:A42_dist>
2.2339761666291

> <r_glide_res:A42_Eint>
-64.1586185360339

> <r_glide_res:A16_vdw>
-0.113128150886917

> <r_glide_res:A16_coul>
-73.554340540006

> <r_glide_res:A16_hbond>
-0.302280857534528

> <r_glide_res:A16_dist>
1.90674776817616

> <r_glide_res:A16_Eint>
-73.9697495484274

> <s_m_source_file>
ligprep_Nicaido_neutral.maegz

> <i_m_source_file_index>
23

> <i_lp_mmshare_version>
58128

> <i_f3d_flags>
0

> <s_lp_Force_Field>
S-OPLS

> <r_lp_Energy>
22.166908

> <b_lp_Chiralities_Consistent>
1

> <s_lp_Variant>
Sulbenicillin-1

> <s_epik_input>
W09IXUMoPU8pW0NAQEhdMUMoW0NIM10pKFtDSDNdKVNbQ0BIXShOMTIpW0NASF0oQzI9TylbTkhdQyg9TylbQ0BASF0oUyg9TykoPU8pW09IXSljM1tjSF1bY0hdW2NIXVtjSF1bY0hdMw==

> <s_epik_cmdline>
J2VwaWtfcHl0aG9uJywgJy1waHQnLCAnMC4wJywgJy1waCcsICc3LjQnLCAnLW50JywgJy1tYScsICc1MDAnLCAnLWltYWUnLCAnPGluZmlsZS5tYWU+JywgJy1vbWFlJywgJzxvdXRmaWxlLm1hZT4n

> <r_lp_tautomer_probability>
1

> <r_epik_Ionization_Penalty>
  0.0000

> <r_epik_Ionization_Penalty_Charging>
  0.0000

> <r_epik_Ionization_Penalty_Neutral>
  0.0000

> <r_epik_State_Penalty>
  0.0000

> <r_epik_Charging_Adjusted_Penalty>
1.13251598244902e-05

> <i_epik_Tot_Q>
-2

> <i_epik_Tot_abs_Q>
2

> <s_epik_Chemistry_Notes>
This compound contains an acetal/aminal-like group ( X-CH(R)-Y where X, Y are N, S, or O) that may be acid/base labile, releasing an aldehyde.

> <s_m_subgroup_title>
glide-dock_Nicaido_neutral_pv1

> <s_m_subgroupid>
glide-dock_Nicaido_neutral_pv1

> <b_m_subgroup_collapsed>
0

$$$$
Ampicillin
                    3D
 Schrodinger Suite 2022-2.
 42 44  0  0  1  0            999 V2000
  -29.4957  -21.6538  -21.7026 C   0  0  0  0  0  0
  -28.1546  -20.9161  -21.9080 C   0  0  0  0  0  0
  -26.8647  -21.8211  -21.8629 C   0  0  2  0  0  0
  -26.0839  -21.3981  -23.0168 N   0  0  0  0  0  0
  -26.3399  -20.1901  -23.7797 C   0  0  2  0  0  0
  -28.1429  -20.1259  -23.5686 S   0  0  0  0  0  0
  -25.6083  -20.8412  -24.9606 C   0  0  2  0  0  0
  -25.2898  -21.9809  -23.9738 C   0  0  0  0  0  0
  -24.6922  -23.0366  -24.0118 O   0  0  0  0  0  0
  -24.4196  -20.1092  -25.3896 N   0  0  0  0  0  0
  -23.5144  -20.6241  -26.2395 C   0  0  0  0  0  0
  -22.2197  -19.8321  -26.4992 C   0  0  2  0  0  0
  -21.2584  -20.3726  -25.4910 C   0  0  0  0  0  0
  -21.1667  -19.8501  -24.1762 C   0  0  0  0  0  0
  -20.2442  -20.3623  -23.2443 C   0  0  0  0  0  0
  -19.3901  -21.4184  -23.6066 C   0  0  0  0  0  0
  -19.4684  -21.9610  -24.9010 C   0  0  0  0  0  0
  -20.3946  -21.4423  -25.8260 C   0  0  0  0  0  0
  -22.3689  -18.3786  -26.4136 N   0  0  0  0  0  0
  -23.6802  -21.7155  -26.7905 O   0  0  0  0  0  0
  -27.0695  -23.3556  -21.8250 C   0  0  0  0  0  0
  -26.6678  -23.9496  -20.8015 O   0  5  0  0  0  0
  -27.5692  -23.9481  -22.8133 O   0  0  0  0  0  0
  -28.0488  -19.8041  -20.8437 C   0  0  0  0  0  0
  -29.5264  -22.1639  -20.7380 H   0  0  0  0  0  0
  -30.3315  -20.9535  -21.7182 H   0  0  0  0  0  0
  -29.6836  -22.3887  -22.4851 H   0  0  0  0  0  0
  -26.2747  -21.5654  -20.9812 H   0  0  0  0  0  0
  -25.8514  -19.3058  -23.3635 H   0  0  0  0  0  0
  -26.2858  -21.1055  -25.7732 H   0  0  0  0  0  0
  -24.2622  -19.1901  -24.9970 H   0  0  0  0  0  0
  -21.8845  -20.0682  -27.5105 H   0  0  0  0  0  0
  -21.8115  -19.0390  -23.8694 H   0  0  0  0  0  0
  -20.1918  -19.9406  -22.2511 H   0  0  0  0  0  0
  -18.6781  -21.8080  -22.8941 H   0  0  0  0  0  0
  -18.8169  -22.7727  -25.1889 H   0  0  0  0  0  0
  -20.4426  -21.8779  -26.8133 H   0  0  0  0  0  0
  -23.3334  -18.0747  -26.2906 H   0  0  0  0  0  0
  -21.8512  -17.9903  -25.6373 H   0  0  0  0  0  0
  -28.0512  -20.2166  -19.8335 H   0  0  0  0  0  0
  -27.1359  -19.2183  -20.9613 H   0  0  0  0  0  0
  -28.8872  -19.1091  -20.9081 H   0  0  0  0  0  0
  1  2  1  0  0  0
  1 25  1  0  0  0
  1 26  1  0  0  0
  1 27  1  0  0  0
  2  6  1  0  0  0
  2  3  1  0  0  0
  2 24  1  0  0  0
  3  4  1  0  0  0
  3 21  1  0  0  0
  3 28  1  0  0  0
  4  8  1  0  0  0
  4  5  1  0  0  0
  5  6  1  0  0  0
  5  7  1  0  0  0
  5 29  1  0  0  0
  7  8  1  0  0  0
  7 10  1  0  0  0
  7 30  1  0  0  0
  8  9  2  0  0  0
 10 11  1  0  0  0
 10 31  1  0  0  0
 11 12  1  0  0  0
 11 20  2  0  0  0
 12 13  1  0  0  0
 12 19  1  0  0  0
 12 32  1  0  0  0
 13 18  1  0  0  0
 13 14  2  0  0  0
 14 15  1  0  0  0
 14 33  1  0  0  0
 15 16  2  0  0  0
 15 34  1  0  0  0
 16 17  1  0  0  0
 16 35  1  0  0  0
 17 18  2  0  0  0
 17 36  1  0  0  0
 18 37  1  0  0  0
 19 38  1  0  0  0
 19 39  1  0  0  0
 21 22  1  0  0  0
 21 23  2  0  0  0
 24 40  1  0  0  0
 24 41  1  0  0  0
 24 42  1  0  0  0
M  CHG  1  22  -1
M  END
> <s_m_entry_id>
27621

> <s_m_entry_name>
data_maestro.18

> <s_m_Source_Path>
C:\Users\olshana1\Git\GramNeg-Accumulation\Gram Negative Permeation - OmpF

> <s_m_Source_File>
data_maestro.csv

> <i_m_Source_File_Index>
18

> <s_m_job_name>
glide-dock_Nicaido_neutral

> <s_i_glide_gridfile>
3POX-grid

> <i_i_glide_lignum>
23

> <i_i_glide_rotatable_bonds>
5

> <r_i_docking_score>
-4.42946491867112

> <r_i_glide_ligand_efficiency>
-0.184561038277963

> <r_i_glide_ligand_efficiency_sa>
-0.532366155739801

> <r_i_glide_ligand_efficiency_ln>
-1.06017420993885

> <r_i_glide_gscore>
-4.53536491867112

> <r_i_glide_lipo>
-0.10635366824421

> <r_i_glide_hbond>
-0.711856063609369

> <r_i_glide_metal>
0

> <r_i_glide_rewards>
-1.03325521232285

> <r_i_glide_evdw>
-25.556713104248

> <r_i_glide_ecoul>
-10.0862989425659

> <r_i_glide_erotb>
0.470487855572594

> <r_i_glide_esite>
-0.363607333469996

> <r_i_glide_emodel>
-55.5730479145936

> <r_i_glide_energy>
-35.643012046814

> <r_i_glide_einternal>
2.36392378807068

> <i_i_glide_confnum>
8

> <i_i_glide_posenum>
162

> <r_i_glide_eff_state_penalty>
0.1059

> <r_glide_res:A132_vdw>
-0.762152643175777

> <r_glide_res:A132_coul>
-50.1048824684287

> <r_glide_res:A132_hbond>
-0.248455162530333

> <r_glide_res:A132_dist>
1.91501323739955

> <r_glide_res:A132_Eint>
-51.1154902741348

> <r_glide_res:A117_vdw>
-3.80863345444302

> <r_glide_res:A117_coul>
7.74743130285576

> <r_glide_res:A117_hbond>
-0.178124282621235

> <r_glide_res:A117_dist>
2.0345028148788

> <r_glide_res:A117_Eint>
3.7606735657915

> <r_glide_res:A113_vdw>
-1.60309928156955

> <r_glide_res:A113_coul>
23.5305628284771

> <r_glide_res:A113_hbond>
0

> <r_glide_res:A113_dist>
3.08872508329913

> <r_glide_res:A113_Eint>
21.9274635469075

> <r_glide_res:A82_vdw>
2.42342696434474

> <r_glide_res:A82_coul>
-52.45888986298

> <r_glide_res:A82_hbond>
-0.2

> <r_glide_res:A82_dist>
1.60038585307189

> <r_glide_res:A82_Eint>
-50.2354628986353

> <r_glide_res:A42_vdw>
-2.17283550216268

> <r_glide_res:A42_coul>
-33.6009460762489

> <r_glide_res:A42_hbond>
0

> <r_glide_res:A42_dist>
2.01936677800463

> <r_glide_res:A42_Eint>
-35.7737815784116

> <r_glide_res:A16_vdw>
-0.240366035823013

> <r_glide_res:A16_coul>
-20.0885793310552

> <r_glide_res:A16_hbond>
0

> <r_glide_res:A16_dist>
4.64369970450504

> <r_glide_res:A16_Eint>
-20.3289453668783

> <s_m_source_file>
ligprep_Nicaido_neutral.maegz

> <i_m_source_file_index>
18

> <i_lp_mmshare_version>
58128

> <i_f3d_flags>
0

> <s_lp_Force_Field>
S-OPLS

> <r_lp_Energy>
33.736216

> <b_lp_Chiralities_Consistent>
1

> <s_lp_Variant>
Ampicillin-1

> <s_epik_input>
W09IXUMoPU8pW0NAQEhdMUMoW0NIM10pKFtDSDNdKVNbQ0BASF0oTjEyKVtDQEhdKEMyPU8pW05IXUMoPU8pW0NAQEhdKFtOSDJdKWMzW2NIXVtjSF1bY0hdW2NIXVtjSF0z

> <s_epik_cmdline>
J2VwaWtfcHl0aG9uJywgJy1waHQnLCAnMC4wJywgJy1waCcsICc3LjQnLCAnLW50JywgJy1tYScsICc1MDAnLCAnLWltYWUnLCAnPGluZmlsZS5tYWU+JywgJy1vbWFlJywgJzxvdXRmaWxlLm1hZT4n

> <r_epik_Ionization_Penalty>
  0.1060

> <r_epik_Ionization_Penalty_Charging>
  0.0000

> <r_epik_Ionization_Penalty_Neutral>
  0.1059

> <r_epik_State_Penalty>
  0.1059

> <r_epik_Charging_Adjusted_Penalty>
0.105949346496876

> <i_epik_Tot_Q>
-1

> <i_epik_Tot_abs_Q>
1

> <s_epik_Chemistry_Notes>
This compound contains an acetal/aminal-like group ( X-CH(R)-Y where X, Y are N, S, or O) that may be acid/base labile, releasing an aldehyde.

> <s_m_subgroup_title>
glide-dock_Nicaido_neutral_pv1

> <s_m_subgroupid>
glide-dock_Nicaido_neutral_pv1

> <b_m_subgroup_collapsed>
0

$$$$
Ceftazidime
                    3D
 Schrodinger Suite 2022-2.
 58 61  0  0  1  0            999 V2000
  -20.1244  -23.3309  -17.5410 C   0  0  0  0  0  0
  -21.2942  -24.1959  -18.0396 C   0  0  0  0  0  0
  -21.3437  -24.1627  -19.5866 C   0  0  0  0  0  0
  -21.0671  -25.6378  -17.5185 C   0  0  0  0  0  0
  -21.5689  -25.9495  -16.4135 O   0  5  0  0  0  0
  -20.3672  -26.4196  -18.2080 O   0  0  0  0  0  0
  -22.4582  -23.5709  -17.4720 O   0  0  0  0  0  0
  -23.6471  -24.2061  -17.8903 N   0  0  0  0  0  0
  -24.5372  -23.3770  -18.2683 C   0  0  0  0  0  0
  -25.8888  -23.8685  -18.7588 C   0  0  0  0  0  0
  -26.7184  -22.8966  -19.1696 N   0  0  0  0  0  0
  -28.0054  -23.0866  -19.8205 C   0  0  1  0  0  0
  -28.6152  -21.7505  -20.2606 C   0  0  2  0  0  0
  -28.3673  -22.1363  -21.6399 N   0  0  0  0  0  0
  -28.7130  -21.3118  -22.7356 C   0  0  0  0  0  0
  -28.6281  -22.0002  -24.1624 C   0  0  0  0  0  0
  -29.5889  -21.8362  -24.9460 O   0  5  0  0  0  0
  -27.6034  -22.6770  -24.4134 O   0  0  0  0  0  0
  -29.0196  -19.9923  -22.5415 C   0  0  0  0  0  0
  -29.5228  -19.0370  -23.6310 C   0  0  0  0  0  0
  -31.0059  -18.9915  -23.6167 N   0  3  0  0  0  0
  -31.7073  -19.5948  -24.6117 C   0  0  0  0  0  0
  -33.1178  -19.6143  -24.5971 C   0  0  0  0  0  0
  -33.8022  -18.9926  -23.5355 C   0  0  0  0  0  0
  -33.0574  -18.3495  -22.5296 C   0  0  0  0  0  0
  -31.6501  -18.3496  -22.6076 C   0  0  0  0  0  0
  -28.8907  -19.2999  -21.1748 C   0  0  0  0  0  0
  -27.8112  -20.1551  -20.0142 S   0  0  0  0  0  0
  -27.8973  -23.3995  -21.3339 C   0  0  0  0  0  0
  -27.5688  -24.3481  -22.0141 O   0  0  0  0  0  0
  -26.1730  -25.0664  -18.8132 O   0  0  0  0  0  0
  -24.3451  -21.9007  -18.3273 C   0  0  0  0  0  0
  -24.4659  -21.1038  -17.2134 C   0  0  0  0  0  0
  -24.3364  -19.4091  -17.6128 S   0  0  0  0  0  0
  -24.1116  -19.8593  -19.2932 C   0  0  0  0  0  0
  -23.9516  -18.9124  -20.2867 N   0  0  0  0  0  0
  -24.1331  -21.1739  -19.5068 N   0  0  0  0  0  0
  -19.1655  -23.6983  -17.9087 H   0  0  0  0  0  0
  -20.2332  -22.2991  -17.8759 H   0  0  0  0  0  0
  -20.0812  -23.3155  -16.4513 H   0  0  0  0  0  0
  -20.3874  -24.4537  -20.0225 H   0  0  0  0  0  0
  -22.1008  -24.8384  -19.9845 H   0  0  0  0  0  0
  -21.5745  -23.1590  -19.9449 H   0  0  0  0  0  0
  -26.4066  -21.9356  -19.0989 H   0  0  0  0  0  0
  -28.7107  -23.6969  -19.2545 H   0  0  0  0  0  0
  -29.6840  -21.6909  -20.0453 H   0  0  0  0  0  0
  -29.1685  -18.0200  -23.4655 H   0  0  0  0  0  0
  -29.1847  -19.3191  -24.6273 H   0  0  0  0  0  0
  -31.1341  -20.0493  -25.4030 H   0  0  0  0  0  0
  -33.6686  -20.1045  -25.3863 H   0  0  0  0  0  0
  -34.8823  -18.9980  -23.4968 H   0  0  0  0  0  0
  -33.5536  -17.8458  -21.7122 H   0  0  0  0  0  0
  -31.0361  -17.8355  -21.8836 H   0  0  0  0  0  0
  -28.4990  -18.2917  -21.2765 H   0  0  0  0  0  0
  -29.8721  -19.2223  -20.7134 H   0  0  0  0  0  0
  -24.6523  -21.4058  -16.1925 H   0  0  0  0  0  0
  -24.0762  -19.1897  -21.2492 H   0  0  0  0  0  0
  -24.1802  -17.9512  -20.0801 H   0  0  0  0  0  0
  1  2  1  0  0  0
  1 38  1  0  0  0
  1 39  1  0  0  0
  1 40  1  0  0  0
  2  3  1  0  0  0
  2  4  1  0  0  0
  2  7  1  0  0  0
  3 41  1  0  0  0
  3 42  1  0  0  0
  3 43  1  0  0  0
  4  5  1  0  0  0
  4  6  2  0  0  0
  7  8  1  0  0  0
  8  9  2  3  0  0
  9 10  1  0  0  0
  9 32  1  0  0  0
 10 11  1  0  0  0
 10 31  2  0  0  0
 11 12  1  0  0  0
 11 44  1  0  0  0
 12 29  1  0  0  0
 12 13  1  0  0  0
 12 45  1  0  0  0
 13 28  1  0  0  0
 13 14  1  0  0  0
 13 46  1  0  0  0
 14 15  1  0  0  0
 14 29  1  0  0  0
 15 16  1  0  0  0
 15 19  2  0  0  0
 16 17  1  0  0  0
 16 18  2  0  0  0
 19 20  1  0  0  0
 19 27  1  0  0  0
 20 21  1  0  0  0
 20 47  1  0  0  0
 20 48  1  0  0  0
 21 26  1  0  0  0
 21 22  2  0  0  0
 22 23  1  0  0  0
 22 49  1  0  0  0
 23 24  2  0  0  0
 23 50  1  0  0  0
 24 25  1  0  0  0
 24 51  1  0  0  0
 25 26  2  0  0  0
 25 52  1  0  0  0
 26 53  1  0  0  0
 27 28  1  0  0  0
 27 54  1  0  0  0
 27 55  1  0  0  0
 29 30  2  0  0  0
 32 37  1  0  0  0
 32 33  2  0  0  0
 33 34  1  0  0  0
 33 56  1  0  0  0
 34 35  1  0  0  0
 35 36  1  0  0  0
 35 37  2  0  0  0
 36 57  1  0  0  0
 36 58  1  0  0  0
M  CHG  3   5  -1  17  -1  21   1
M  END
> <s_m_entry_id>
27622

> <s_m_entry_name>
data_maestro.30

> <s_m_Source_Path>
C:\Users\olshana1\Git\GramNeg-Accumulation\Gram Negative Permeation - OmpF

> <s_m_Source_File>
data_maestro.csv

> <i_m_Source_File_Index>
30

> <s_m_job_name>
glide-dock_Nicaido_neutral

> <s_i_glide_gridfile>
3POX-grid

> <i_i_glide_lignum>
38

> <i_i_glide_rotatable_bonds>
10

> <r_i_docking_score>
-4.42819054961592

> <r_i_glide_ligand_efficiency>
-0.119680825665295

> <r_i_glide_ligand_efficiency_sa>
-0.398803062024911

> <r_i_glide_ligand_efficiency_ln>
-0.96037071869633

> <r_i_glide_gscore>
-4.42819054961592

> <r_i_glide_lipo>
0

> <r_i_glide_hbond>
-0.864078751799124

> <r_i_glide_metal>
0

> <r_i_glide_rewards>
0.857476791524002

> <r_i_glide_evdw>
-34.0013008117676

> <r_i_glide_ecoul>
-17.5651264190674

> <r_i_glide_erotb>
0.556495996469625

> <r_i_glide_esite>
-0.643250582361932

> <r_i_glide_emodel>
-77.5465859174985

> <r_i_glide_energy>
-51.566427230835

> <r_i_glide_einternal>
8.33483982086182

> <i_i_glide_confnum>
336

> <i_i_glide_posenum>
352

> <r_i_glide_eff_state_penalty>
0

> <r_glide_res:A132_vdw>
0.069648011649583

> <r_glide_res:A132_coul>
-35.9472708684569

> <r_glide_res:A132_hbond>
-0.109797395699655

> <r_glide_res:A132_dist>
2.13520899442487

> <r_glide_res:A132_Eint>
-35.987420252507

> <r_glide_res:A117_vdw>
-3.15417094988539

> <r_glide_res:A117_coul>
8.41927417791013

> <r_glide_res:A117_hbond>
0

> <r_glide_res:A117_dist>
2.35610533360543

> <r_glide_res:A117_Eint>
5.26510322802474

> <r_glide_res:A113_vdw>
-4.07403478315088

> <r_glide_res:A113_coul>
-0.418142308329417

> <r_glide_res:A113_hbond>
0

> <r_glide_res:A113_dist>
2.38525934532356

> <r_glide_res:A113_Eint>
-4.49217709148029

> <r_glide_res:A82_vdw>
-1.39981939661317

> <r_glide_res:A82_coul>
-38.6401002224158

> <r_glide_res:A82_hbond>
-0.16

> <r_glide_res:A82_dist>
1.90777406199393

> <r_glide_res:A82_Eint>
-40.199919619029

> <r_glide_res:A42_vdw>
-0.700360078062716

> <r_glide_res:A42_coul>
-39.5510237051218

> <r_glide_res:A42_hbond>
-0.199867987764211

> <r_glide_res:A42_dist>
1.92485119494756

> <r_glide_res:A42_Eint>
-40.4512517709487

> <r_glide_res:A16_vdw>
-0.613840470370168

> <r_glide_res:A16_coul>
-13.401563293391

> <r_glide_res:A16_hbond>
0

> <r_glide_res:A16_dist>
3.05333538480028

> <r_glide_res:A16_Eint>
-14.0154037637611

> <s_m_source_file>
ligprep_Nicaido_neutral.maegz

> <i_m_source_file_index>
30

> <i_lp_mmshare_version>
58128

> <i_f3d_flags>
0

> <s_lp_Force_Field>
S-OPLS

> <r_lp_Energy>
86.633473

> <b_lp_Chiralities_Consistent>
1

> <s_lp_Variant>
Ceftazidime-1

> <s_epik_input>
W09IXUMoPU8pQyhbQ0gzXSkoW0NIM10pTy9OPUMoYzFbY0hdc2MobjEpW05IMl0pL0MoPU8pW05IXVtDQEBIXTJDKD1PKU4oW0NAQEhdMjMpQyhDKD1PKVtPSF0pPUMoW0NIMl1TMylbQ0gyXVtuK100W2NIXVtjSF1bY0hdW2NIXVtjSF00

> <s_epik_cmdline>
J2VwaWtfcHl0aG9uJywgJy1waHQnLCAnMC4wJywgJy1waCcsICc3LjQnLCAnLW50JywgJy1tYScsICc1MDAnLCAnLWltYWUnLCAnPGluZmlsZS5tYWU+JywgJy1vbWFlJywgJzxvdXRmaWxlLm1hZT4n

> <r_lp_tautomer_probability>
1

> <r_epik_Ionization_Penalty>
  0.0005

> <r_epik_Ionization_Penalty_Charging>
  0.0001

> <r_epik_Ionization_Penalty_Neutral>
  0.0005

> <r_epik_State_Penalty>
  0.0000

> <r_epik_Charging_Adjusted_Penalty>
5.84857251211915e-05

> <i_epik_Tot_Q>
-1

> <i_epik_Tot_abs_Q>
3

> <s_epik_Chemistry_Notes>
This compound has an imine and may undergo hydrolysis. This compound contains an acetal/aminal-like group ( X-CH(R)-Y where X, Y are N, S, or O) that may be acid/base labile, releasing an aldehyde.

> <s_m_subgroup_title>
glide-dock_Nicaido_neutral_pv1

> <s_m_subgroupid>
glide-dock_Nicaido_neutral_pv1

> <b_m_subgroup_collapsed>
0

$$$$
Cefazolin
                    3D
 Schrodinger Suite 2022-2.
 42 45  0  0  1  0            999 V2000
  -35.6629  -17.5473  -29.1318 C   0  0  0  0  0  0
  -34.4380  -17.9994  -28.4225 C   0  0  0  0  0  0
  -34.1299  -19.2926  -28.2859 N   0  0  0  0  0  0
  -32.9897  -19.4745  -27.5269 N   0  0  0  0  0  0
  -32.4467  -18.3147  -27.1313 C   0  0  0  0  0  0
  -33.2975  -16.8822  -27.6823 S   0  0  0  0  0  0
  -30.9767  -18.1923  -26.1752 S   0  0  0  0  0  0
  -31.3234  -19.5162  -24.9796 C   0  0  0  0  0  0
  -30.1344  -19.8009  -24.0711 C   0  0  0  0  0  0
  -29.2952  -20.8631  -24.2277 C   0  0  0  0  0  0
  -28.2096  -21.0996  -23.3638 N   0  0  0  0  0  0
  -27.6778  -20.0887  -22.4689 C   0  0  2  0  0  0
  -26.7557  -21.1815  -21.8900 C   0  0  2  0  0  0
  -27.2287  -22.0397  -23.0953 C   0  0  0  0  0  0
  -26.9147  -23.0900  -23.6205 O   0  0  0  0  0  0
  -27.2117  -21.6444  -20.5785 N   0  0  0  0  0  0
  -26.9487  -22.8424  -20.0413 C   0  0  0  0  0  0
  -27.4364  -23.0653  -18.6005 C   0  0  0  0  0  0
  -27.6961  -24.4628  -18.2841 N   0  0  0  0  0  0
  -28.7782  -25.0489  -17.7720 C   0  0  0  0  0  0
  -28.5873  -26.3511  -17.5942 N   0  0  0  0  0  0
  -27.2818  -26.5440  -18.0078 N   0  0  0  0  0  0
  -26.7453  -25.4279  -18.4129 N   0  0  0  0  0  0
  -26.3377  -23.7249  -20.6507 O   0  0  0  0  0  0
  -29.0551  -19.3562  -21.5446 S   0  0  0  0  0  0
  -29.9614  -18.7459  -22.9809 C   0  0  0  0  0  0
  -29.5140  -21.9495  -25.3298 C   0  0  0  0  0  0
  -29.5693  -23.1446  -24.9629 O   0  5  0  0  0  0
  -29.5690  -21.5501  -26.5130 O   0  0  0  0  0  0
  -36.1529  -18.3918  -29.6140 H   0  0  0  0  0  0
  -36.3605  -17.1271  -28.4103 H   0  0  0  0  0  0
  -35.4148  -16.7938  -29.8793 H   0  0  0  0  0  0
  -31.6423  -20.4158  -25.5001 H   0  0  0  0  0  0
  -32.1774  -19.2255  -24.3693 H   0  0  0  0  0  0
  -27.1350  -19.3239  -23.0309 H   0  0  0  0  0  0
  -25.7041  -20.8845  -21.9121 H   0  0  0  0  0  0
  -27.7546  -20.9772  -20.0394 H   0  0  0  0  0  0
  -28.3546  -22.4999  -18.4275 H   0  0  0  0  0  0
  -26.6920  -22.6882  -17.8985 H   0  0  0  0  0  0
  -29.6944  -24.5323  -17.5301 H   0  0  0  0  0  0
  -29.4437  -17.8850  -23.3993 H   0  0  0  0  0  0
  -30.9302  -18.3991  -22.6311 H   0  0  0  0  0  0
  1  2  1  0  0  0
  1 30  1  0  0  0
  1 31  1  0  0  0
  1 32  1  0  0  0
  2  6  1  0  0  0
  2  3  2  0  0  0
  3  4  1  0  0  0
  4  5  2  0  0  0
  5  6  1  0  0  0
  5  7  1  0  0  0
  7  8  1  0  0  0
  8  9  1  0  0  0
  8 33  1  0  0  0
  8 34  1  0  0  0
  9 26  1  0  0  0
  9 10  2  0  0  0
 10 11  1  0  0  0
 10 27  1  0  0  0
 11 14  1  0  0  0
 11 12  1  0  0  0
 12 13  1  0  0  0
 12 25  1  0  0  0
 12 35  1  0  0  0
 13 14  1  0  0  0
 13 16  1  0  0  0
 13 36  1  0  0  0
 14 15  2  0  0  0
 16 17  1  0  0  0
 16 37  1  0  0  0
 17 18  1  0  0  0
 17 24  2  0  0  0
 18 19  1  0  0  0
 18 38  1  0  0  0
 18 39  1  0  0  0
 19 23  1  0  0  0
 19 20  1  0  0  0
 20 21  2  0  0  0
 20 40  1  0  0  0
 21 22  1  0  0  0
 22 23  2  0  0  0
 25 26  1  0  0  0
 26 41  1  0  0  0
 26 42  1  0  0  0
 27 28  1  0  0  0
 27 29  2  0  0  0
M  CHG  1  28  -1
M  END
> <s_m_entry_id>
27623

> <s_m_entry_name>
data_maestro.2

> <s_m_Source_Path>
C:\Users\olshana1\Git\GramNeg-Accumulation\Gram Negative Permeation - OmpF

> <s_m_Source_File>
data_maestro.csv

> <i_m_Source_File_Index>
2

> <s_m_job_name>
glide-dock_Nicaido_neutral

> <s_i_glide_gridfile>
3POX-grid

> <i_i_glide_lignum>
2

> <i_i_glide_rotatable_bonds>
8

> <r_i_docking_score>
-4.42749235194933

> <r_i_glide_ligand_efficiency>
-0.152672150067218

> <r_i_glide_ligand_efficiency_sa>
-0.469057214938665

> <r_i_glide_ligand_efficiency_ln>
-1.0137834770774

> <r_i_glide_gscore>
-4.42749235194933

> <r_i_glide_lipo>
-0.0311937282312448

> <r_i_glide_hbond>
-0.729691139259683

> <r_i_glide_metal>
0

> <r_i_glide_rewards>
-0.316897461945215

> <r_i_glide_evdw>
-32.7311210632324

> <r_i_glide_ecoul>
-9.78036785125732

> <r_i_glide_erotb>
0.585623573400065

> <r_i_glide_esite>
-0.831722365063034

> <r_i_glide_emodel>
-64.1004691204236

> <r_i_glide_energy>
-42.5114889144897

> <r_i_glide_einternal>
6.13343715667725

> <i_i_glide_confnum>
39

> <i_i_glide_posenum>
219

> <r_i_glide_eff_state_penalty>
0

> <r_glide_res:A132_vdw>
-1.3315023317161

> <r_glide_res:A132_coul>
-35.652865916479

> <r_glide_res:A132_hbond>
-0.16

> <r_glide_res:A132_dist>
2.05124734915854

> <r_glide_res:A132_Eint>
-37.1443682481951

> <r_glide_res:A117_vdw>
-3.62982416295089

> <r_glide_res:A117_coul>
21.2733190901993

> <r_glide_res:A117_hbond>
0

> <r_glide_res:A117_dist>
2.5705313635739

> <r_glide_res:A117_Eint>
17.6434949272484

> <r_glide_res:A113_vdw>
-2.59633226527143

> <r_glide_res:A113_coul>
13.8498970997318

> <r_glide_res:A113_hbond>
0

> <r_glide_res:A113_dist>
2.94847347025362

> <r_glide_res:A113_Eint>
11.2535648344604

> <r_glide_res:A82_vdw>
-1.7491763538781

> <r_glide_res:A82_coul>
-43.07179414596

> <r_glide_res:A82_hbond>
-0.0909121405385895

> <r_glide_res:A82_dist>
2.18899283553976

> <r_glide_res:A82_Eint>
-44.9118826403766

> <r_glide_res:A42_vdw>
0.143122571606572

> <r_glide_res:A42_coul>
-52.4050590280826

> <r_glide_res:A42_hbond>
-0.278778998721093

> <r_glide_res:A42_dist>
1.78058452152643

> <r_glide_res:A42_Eint>
-52.5407154551971

> <r_glide_res:A16_vdw>
-0.789486875449506

> <r_glide_res:A16_coul>
-53.3010952433219

> <r_glide_res:A16_hbond>
-0.2

> <r_glide_res:A16_dist>
1.80453733975531

> <r_glide_res:A16_Eint>
-54.2905821187714

> <s_m_source_file>
ligprep_Nicaido_neutral.maegz

> <i_m_source_file_index>
2

> <i_lp_mmshare_version>
58128

> <i_f3d_flags>
0

> <s_lp_Force_Field>
S-OPLS

> <r_lp_Energy>
37.420105

> <b_lp_Chiralities_Consistent>
1

> <s_lp_Variant>
Cefazolin-1

> <s_epik_input>
W0NIM11jMW5uYyhzMSlTW0NIMl1DKD1DMkMoPU8pW09IXSlbQ0gyXVNbQ0BIXShOMjMpW0NASF0oQzM9TylbTkhdQyg9TylbQ0gyXW40W2NIXW5ubjQ=

> <s_epik_cmdline>
J2VwaWtfcHl0aG9uJywgJy1waHQnLCAnMC4wJywgJy1waCcsICc3LjQnLCAnLW50JywgJy1tYScsICc1MDAnLCAnLWltYWUnLCAnPGluZmlsZS5tYWU+JywgJy1vbWFlJywgJzxvdXRmaWxlLm1hZT4n

> <r_lp_tautomer_probability>
1

> <r_epik_Ionization_Penalty>
  0.0000

> <r_epik_Ionization_Penalty_Charging>
  0.0000

> <r_epik_Ionization_Penalty_Neutral>
  0.0000

> <r_epik_State_Penalty>
  0.0000

> <r_epik_Charging_Adjusted_Penalty>
8.33047029083912e-06

> <i_epik_Tot_Q>
-1

> <i_epik_Tot_abs_Q>
1

> <s_epik_Chemistry_Notes>
This compound contains an acetal/aminal-like group ( X-CH(R)-Y where X, Y are N, S, or O) that may be acid/base labile, releasing an aldehyde.

> <s_m_subgroup_title>
glide-dock_Nicaido_neutral_pv1

> <s_m_subgroupid>
glide-dock_Nicaido_neutral_pv1

> <b_m_subgroup_collapsed>
0

$$$$
LY097964
                    3D
 Schrodinger Suite 2022-2.
 40 42  0  0  1  0            999 V2000
  -33.0301  -16.6529  -26.7670 C   0  0  0  0  0  0
  -32.5789  -17.5609  -25.7787 O   0  0  0  0  0  0
  -31.2578  -17.9086  -26.0942 N   0  0  0  0  0  0
  -30.6071  -18.3677  -25.0994 C   0  0  0  0  0  0
  -31.2016  -18.6103  -23.7508 C   0  0  0  0  0  0
  -30.7448  -17.9497  -22.6356 C   0  0  0  0  0  0
  -31.6520  -18.3498  -21.2134 S   0  0  0  0  0  0
  -32.6098  -19.4514  -22.1777 C   0  0  0  0  0  0
  -33.6367  -20.1866  -21.6146 N   0  0  0  0  0  0
  -32.2586  -19.4891  -23.4647 N   0  0  0  0  0  0
  -29.1461  -18.7497  -25.2824 C   0  0  0  0  0  0
  -28.4977  -19.1107  -24.1630 N   0  0  0  0  0  0
  -27.1322  -19.6171  -24.1125 C   0  0  1  0  0  0
  -26.6035  -19.7438  -22.6695 C   0  0  1  0  0  0
  -26.3742  -21.1489  -22.9547 N   0  0  0  0  0  0
  -27.1182  -21.1583  -24.1213 C   0  0  0  0  0  0
  -27.5681  -22.0474  -24.8131 O   0  0  0  0  0  0
  -25.7587  -22.0250  -22.0370 C   0  0  0  0  0  0
  -25.9868  -23.5496  -22.3065 C   0  0  0  0  0  0
  -24.9700  -24.2759  -22.3787 O   0  5  0  0  0  0
  -27.1694  -23.9502  -22.4140 O   0  0  0  0  0  0
  -25.0529  -21.5696  -20.9637 C   0  0  0  0  0  0
  -24.7875  -20.0903  -20.6951 C   0  0  0  0  0  0
  -25.0167  -19.0355  -22.1446 S   0  0  0  0  0  0
  -24.4550  -22.4571  -19.8772 C   0  0  0  0  0  0
  -28.6220  -18.7496  -26.3958 O   0  0  0  0  0  0
  -34.0497  -16.3433  -26.5393 H   0  0  0  0  0  0
  -32.4063  -15.7572  -26.7940 H   0  0  0  0  0  0
  -33.0291  -17.1098  -27.7577 H   0  0  0  0  0  0
  -29.9697  -17.2010  -22.5624 H   0  0  0  0  0  0
  -34.2648  -20.7312  -22.1840 H   0  0  0  0  0  0
  -33.9127  -20.0249  -20.6485 H   0  0  0  0  0  0
  -28.9903  -19.0497  -23.2822 H   0  0  0  0  0  0
  -26.4282  -19.1249  -24.7874 H   0  0  0  0  0  0
  -27.3694  -19.6155  -21.9003 H   0  0  0  0  0  0
  -25.4515  -19.7532  -19.8983 H   0  0  0  0  0  0
  -23.7650  -19.9545  -20.3428 H   0  0  0  0  0  0
  -24.7558  -22.0888  -18.8958 H   0  0  0  0  0  0
  -24.7655  -23.4986  -19.9298 H   0  0  0  0  0  0
  -23.3665  -22.4249  -19.9283 H   0  0  0  0  0  0
  1  2  1  0  0  0
  1 27  1  0  0  0
  1 28  1  0  0  0
  1 29  1  0  0  0
  2  3  1  0  0  0
  3  4  2  3  0  0
  4  5  1  0  0  0
  4 11  1  0  0  0
  5 10  1  0  0  0
  5  6  2  0  0  0
  6  7  1  0  0  0
  6 30  1  0  0  0
  7  8  1  0  0  0
  8  9  1  0  0  0
  8 10  2  0  0  0
  9 31  1  0  0  0
  9 32  1  0  0  0
 11 12  1  0  0  0
 11 26  2  0  0  0
 12 13  1  0  0  0
 12 33  1  0  0  0
 13 16  1  0  0  0
 13 14  1  0  0  0
 13 34  1  0  0  0
 14 24  1  0  0  0
 14 15  1  0  0  0
 14 35  1  0  0  0
 15 16  1  0  0  0
 15 18  1  0  0  0
 16 17  2  0  0  0
 18 19  1  0  0  0
 18 22  2  0  0  0
 19 20  1  0  0  0
 19 21  2  0  0  0
 22 23  1  0  0  0
 22 25  1  0  0  0
 23 24  1  0  0  0
 23 36  1  0  0  0
 23 37  1  0  0  0
 25 38  1  0  0  0
 25 39  1  0  0  0
 25 40  1  0  0  0
M  CHG  1  20  -1
M  END
> <s_m_entry_id>
27624

> <s_m_entry_name>
data_maestro.7

> <s_m_Source_Path>
C:\Users\olshana1\Git\GramNeg-Accumulation\Gram Negative Permeation - OmpF

> <s_m_Source_File>
data_maestro.csv

> <i_m_Source_File_Index>
7

> <s_m_job_name>
glide-dock_Nicaido_neutral

> <s_i_glide_gridfile>
3POX-grid

> <i_i_glide_lignum>
9

> <i_i_glide_rotatable_bonds>
6

> <r_i_docking_score>
-4.42545162764607

> <r_i_glide_ligand_efficiency>
-0.170209677986387

> <r_i_glide_ligand_efficiency_sa>
-0.50424550129193

> <r_i_glide_ligand_efficiency_ln>
-1.0393027936615

> <r_i_glide_gscore>
-4.42545162764607

> <r_i_glide_lipo>
0

> <r_i_glide_hbond>
-0.794242006378292

> <r_i_glide_metal>
0

> <r_i_glide_rewards>
-0.661211406791195

> <r_i_glide_evdw>
-27.3228206634521

> <r_i_glide_ecoul>
-10.9258985519409

> <r_i_glide_erotb>
0.622478626066327

> <r_i_glide_esite>
-0.587451024579162

> <r_i_glide_emodel>
-59.0074772540433

> <r_i_glide_energy>
-38.2487192153931

> <r_i_glide_einternal>
2.68577790260315

> <i_i_glide_confnum>
27

> <i_i_glide_posenum>
348

> <r_i_glide_eff_state_penalty>
0

> <r_glide_res:A132_vdw>
-0.806870306388629

> <r_glide_res:A132_coul>
-41.128587487127

> <r_glide_res:A132_hbond>
-0.0447859269507716

> <r_glide_res:A132_dist>
2.28404566231008

> <r_glide_res:A132_Eint>
-41.9802437204664

> <r_glide_res:A117_vdw>
-7.10332951979483

> <r_glide_res:A117_coul>
21.9942171586593

> <r_glide_res:A117_hbond>
0

> <r_glide_res:A117_dist>
2.74239169882145

> <r_glide_res:A117_Eint>
14.8908876388644

> <r_glide_res:A113_vdw>
-1.99797983447985

> <r_glide_res:A113_coul>
17.6733805833547

> <r_glide_res:A113_hbond>
-0.32

> <r_glide_res:A113_dist>
1.96372286605329

> <r_glide_res:A113_Eint>
15.3554007488748

> <r_glide_res:A82_vdw>
-0.196714535006786

> <r_glide_res:A82_coul>
-47.9370549943727

> <r_glide_res:A82_hbond>
-0.2

> <r_glide_res:A82_dist>
1.79913977014149

> <r_glide_res:A82_Eint>
-48.3337695293795

> <r_glide_res:A42_vdw>
-0.416442402536071

> <r_glide_res:A42_coul>
-38.6584584606101

> <r_glide_res:A42_hbond>
-0.16

> <r_glide_res:A42_dist>
1.79894371432117

> <r_glide_res:A42_Eint>
-39.2349008631462

> <r_glide_res:A16_vdw>
-0.941565559701255

> <r_glide_res:A16_coul>
-27.0308274170348

> <r_glide_res:A16_hbond>
0

> <r_glide_res:A16_dist>
3.40242902135934

> <r_glide_res:A16_Eint>
-27.972392976736

> <s_m_source_file>
ligprep_Nicaido_neutral.maegz

> <i_m_source_file_index>
7

> <i_lp_mmshare_version>
58128

> <i_f3d_flags>
0

> <s_lp_Force_Field>
S-OPLS

> <r_lp_Energy>
53.750759

> <b_lp_Chiralities_Consistent>
1

> <s_lp_Variant>
LY097964-1

> <s_epik_input>
W05IMl1jKG4xKXNbY0hdYzEvQyg9TlxPW0NIM10pQyg9TylbTkhdW0NAQEhdMkMoPU8pTihbQ0BIXTIzKUMoQyg9TylbT0hdKT1DKFtDSDJdUzMpW0NIM10=

> <s_epik_cmdline>
J2VwaWtfcHl0aG9uJywgJy1waHQnLCAnMC4wJywgJy1waCcsICc3LjQnLCAnLW50JywgJy1tYScsICc1MDAnLCAnLWltYWUnLCAnPGluZmlsZS5tYWU+JywgJy1vbWFlJywgJzxvdXRmaWxlLm1hZT4n

> <r_lp_tautomer_probability>
1

> <r_epik_Ionization_Penalty>
  0.0005

> <r_epik_Ionization_Penalty_Charging>
  0.0000

> <r_epik_Ionization_Penalty_Neutral>
  0.0005

> <r_epik_State_Penalty>
  0.0000

> <r_epik_Charging_Adjusted_Penalty>
1.64985111359435e-05

> <i_epik_Tot_Q>
-1

> <i_epik_Tot_abs_Q>
1

> <s_epik_Chemistry_Notes>
This compound has an imine and may undergo hydrolysis. This compound contains an acetal/aminal-like group ( X-CH(R)-Y where X, Y are N, S, or O) that may be acid/base labile, releasing an aldehyde.

> <s_m_subgroup_title>
glide-dock_Nicaido_neutral_pv1

> <s_m_subgroupid>
glide-dock_Nicaido_neutral_pv1

> <b_m_subgroup_collapsed>
0

$$$$
Aztreonam
                    3D
 Schrodinger Suite 2022-2.
 43 44  0  0  1  0            999 V2000
  -31.3659  -24.4242  -21.4021 C   0  0  0  0  0  0
  -31.9392  -23.4965  -22.4810 C   0  0  1  0  0  0
  -31.0320  -22.5222  -23.2791 C   0  0  2  0  0  0
  -31.2953  -23.4488  -24.4915 C   0  0  0  0  0  0
  -32.1803  -24.1843  -23.7436 N   0  0  0  0  0  0
  -33.1686  -25.5138  -23.9460 S   0  0  0  0  0  0
  -34.0431  -25.5246  -22.7646 O   0  0  0  0  0  0
  -32.2313  -26.6482  -24.0134 O   0  5  0  0  0  0
  -33.8702  -25.2392  -25.2088 O   0  0  0  0  0  0
  -30.9035  -23.5483  -25.6337 O   0  0  0  0  0  0
  -29.6531  -22.5273  -22.7756 N   0  0  0  0  0  0
  -28.5043  -22.4970  -23.4828 C   0  0  0  0  0  0
  -27.2532  -22.7501  -22.6609 C   0  0  0  0  0  0
  -27.4058  -22.6593  -21.1817 C   0  0  0  0  0  0
  -26.8720  -21.6189  -20.4575 C   0  0  0  0  0  0
  -27.2515  -21.7426  -18.7581 S   0  0  0  0  0  0
  -28.1221  -23.2279  -19.1048 C   0  0  0  0  0  0
  -28.7688  -23.9491  -18.1217 N   0  0  0  0  0  0
  -28.1068  -23.5782  -20.3905 N   0  0  0  0  0  0
  -26.1681  -23.0416  -23.2582 N   0  0  0  0  0  0
  -25.0974  -23.2921  -22.3795 O   0  0  0  0  0  0
  -23.8470  -23.3887  -23.0863 C   0  0  0  0  0  0
  -23.6527  -24.8059  -23.6975 C   0  0  0  0  0  0
  -24.3689  -25.1534  -24.6648 O   0  5  0  0  0  0
  -22.7690  -25.5492  -23.2133 O   0  0  0  0  0  0
  -23.6728  -22.3149  -24.1919 C   0  0  0  0  0  0
  -22.8037  -23.1310  -21.9780 C   0  0  0  0  0  0
  -28.4388  -22.3500  -24.7072 O   0  0  0  0  0  0
  -31.0624  -23.8555  -20.5224 H   0  0  0  0  0  0
  -32.1063  -25.1482  -21.0621 H   0  0  0  0  0  0
  -30.5001  -24.9845  -21.7537 H   0  0  0  0  0  0
  -32.8569  -23.0015  -22.1576 H   0  0  0  0  0  0
  -31.4637  -21.5239  -23.3630 H   0  0  0  0  0  0
  -29.5687  -22.6308  -21.7719 H   0  0  0  0  0  0
  -26.2944  -20.7795  -20.8179 H   0  0  0  0  0  0
  -29.6181  -24.4104  -18.4122 H   0  0  0  0  0  0
  -28.8982  -23.4401  -17.2570 H   0  0  0  0  0  0
  -22.6568  -22.3212  -24.5883 H   0  0  0  0  0  0
  -24.3419  -22.4704  -25.0389 H   0  0  0  0  0  0
  -23.8641  -21.3150  -23.8006 H   0  0  0  0  0  0
  -21.7840  -23.1810  -22.3624 H   0  0  0  0  0  0
  -22.9397  -22.1413  -21.5405 H   0  0  0  0  0  0
  -22.8917  -23.8555  -21.1673 H   0  0  0  0  0  0
  1  2  1  0  0  0
  1 29  1  0  0  0
  1 30  1  0  0  0
  1 31  1  0  0  0
  2  5  1  0  0  0
  2  3  1  0  0  0
  2 32  1  0  0  0
  3  4  1  0  0  0
  3 11  1  0  0  0
  3 33  1  0  0  0
  4  5  1  0  0  0
  4 10  2  0  0  0
  5  6  1  0  0  0
  6  7  2  0  0  0
  6  8  1  0  0  0
  6  9  2  0  0  0
 11 12  1  0  0  0
 11 34  1  0  0  0
 12 13  1  0  0  0
 12 28  2  0  0  0
 13 14  1  0  0  0
 13 20  2  3  0  0
 14 19  1  0  0  0
 14 15  2  0  0  0
 15 16  1  0  0  0
 15 35  1  0  0  0
 16 17  1  0  0  0
 17 18  1  0  0  0
 17 19  2  0  0  0
 18 36  1  0  0  0
 18 37  1  0  0  0
 20 21  1  0  0  0
 21 22  1  0  0  0
 22 23  1  0  0  0
 22 26  1  0  0  0
 22 27  1  0  0  0
 23 24  1  0  0  0
 23 25  2  0  0  0
 26 38  1  0  0  0
 26 39  1  0  0  0
 26 40  1  0  0  0
 27 41  1  0  0  0
 27 42  1  0  0  0
 27 43  1  0  0  0
M  CHG  2   8  -1  24  -1
M  END
> <s_m_entry_id>
27625

> <s_m_entry_name>
data_maestro.21

> <s_m_Source_Path>
C:\Users\olshana1\Git\GramNeg-Accumulation\Gram Negative Permeation - OmpF

> <s_m_Source_File>
data_maestro.csv

> <i_m_Source_File_Index>
21

> <s_m_job_name>
glide-dock_Nicaido_neutral

> <s_i_glide_gridfile>
3POX-grid

> <i_i_glide_lignum>
26

> <i_i_glide_rotatable_bonds>
8

> <r_i_docking_score>
-4.42147394532328

> <r_i_glide_ligand_efficiency>
-0.157909783761546

> <r_i_glide_ligand_efficiency_sa>
-0.479507107388975

> <r_i_glide_ligand_efficiency_ln>
-1.02060600669668

> <r_i_glide_gscore>
-4.42147394532328

> <r_i_glide_lipo>
0

> <r_i_glide_hbond>
-0.897675992439382

> <r_i_glide_metal>
0

> <r_i_glide_rewards>
-0.450737476235069

> <r_i_glide_evdw>
-22.9049263000488

> <r_i_glide_ecoul>
-12.2449474334717

> <r_i_glide_erotb>
0.635830109179744

> <r_i_glide_esite>
-0.726902155805376

> <r_i_glide_emodel>
-59.0029917716461

> <r_i_glide_energy>
-35.1498737335205

> <r_i_glide_einternal>
6.52669763565063

> <i_i_glide_confnum>
82

> <i_i_glide_posenum>
181

> <r_i_glide_eff_state_penalty>
0

> <r_glide_res:A132_vdw>
-3.3176970405919

> <r_glide_res:A132_coul>
-59.4057189652704

> <r_glide_res:A132_hbond>
-0.149487282910132

> <r_glide_res:A132_dist>
2.12628179272467

> <r_glide_res:A132_Eint>
-62.8729032887725

> <r_glide_res:A117_vdw>
-0.640330538307297

> <r_glide_res:A117_coul>
32.8669545038064

> <r_glide_res:A117_hbond>
0

> <r_glide_res:A117_dist>
4.49641509598484

> <r_glide_res:A117_Eint>
32.2266239654991

> <r_glide_res:A113_vdw>
-2.80326823305327

> <r_glide_res:A113_coul>
27.4577116967132

> <r_glide_res:A113_hbond>
0

> <r_glide_res:A113_dist>
2.8953094895908

> <r_glide_res:A113_Eint>
24.6544434636599

> <r_glide_res:A82_vdw>
-3.41398368735172

> <r_glide_res:A82_coul>
-77.6956909368599

> <r_glide_res:A82_hbond>
-0.230501637116517

> <r_glide_res:A82_dist>
2.10684985895741

> <r_glide_res:A82_Eint>
-81.3401762613281

> <r_glide_res:A42_vdw>
-2.38754344277218

> <r_glide_res:A42_coul>
-69.0248460135695

> <r_glide_res:A42_hbond>
-0.247313099727085

> <r_glide_res:A42_dist>
2.10833212026508

> <r_glide_res:A42_Eint>
-71.6597025560688

> <r_glide_res:A16_vdw>
-0.674207399822426

> <r_glide_res:A16_coul>
-45.0063575218029

> <r_glide_res:A16_hbond>
0

> <r_glide_res:A16_dist>
3.50036278203241

> <r_glide_res:A16_Eint>
-45.6805649216254

> <s_m_source_file>
ligprep_Nicaido_neutral.maegz

> <i_m_source_file_index>
21

> <i_lp_mmshare_version>
58128

> <i_f3d_flags>
0

> <s_lp_Force_Field>
S-OPLS

> <r_lp_Energy>
55.612973

> <b_lp_Chiralities_Consistent>
1

> <s_lp_Variant>
Aztreonam-1

> <s_epik_input>
Tz1TKD1PKShbT0hdKU4xQyg9TylbQ0BASF0oW0NAQEhdMVtDSDNdKVtOSF1DKD1PKS9DKGMyW2NIXXNjKG4yKVtOSDJdKT1OL09DKFtDSDNdKShbQ0gzXSlDKD1PKVtPSF0=

> <s_epik_cmdline>
J2VwaWtfcHl0aG9uJywgJy1waHQnLCAnMC4wJywgJy1waCcsICc3LjQnLCAnLW50JywgJy1tYScsICc1MDAnLCAnLWltYWUnLCAnPGluZmlsZS5tYWU+JywgJy1vbWFlJywgJzxvdXRmaWxlLm1hZT4n

> <r_lp_tautomer_probability>
1

> <r_epik_Ionization_Penalty>
  0.0004

> <r_epik_Ionization_Penalty_Charging>
  0.0000

> <r_epik_Ionization_Penalty_Neutral>
  0.0004

> <r_epik_State_Penalty>
  0.0000

> <r_epik_Charging_Adjusted_Penalty>
4.45674509427693e-05

> <i_epik_Tot_Q>
-2

> <i_epik_Tot_abs_Q>
2

> <s_epik_Chemistry_Notes>
This compound has an imine and may undergo hydrolysis.

> <s_m_subgroup_title>
glide-dock_Nicaido_neutral_pv1

> <s_m_subgroupid>
glide-dock_Nicaido_neutral_pv1

> <b_m_subgroup_collapsed>
0

$$$$
Nocardicin B
                    3D
 Schrodinger Suite 2022-2.
 59 61  0  0  1  0            999 V2000
  -33.5690  -21.6723  -28.7210 O   0  0  0  0  0  0
  -34.6783  -21.2041  -28.5804 C   0  0  0  0  0  0
  -36.1052  -21.7430  -28.4497 C   0  0  2  0  0  0
  -36.5167  -20.2756  -28.3059 C   0  0  0  0  0  0
  -35.1054  -19.9048  -28.4828 N   0  0  0  0  0  0
  -34.3997  -18.6311  -28.5939 C   0  0  2  0  0  0
  -33.5830  -18.3452  -27.3685 C   0  0  0  0  0  0
  -32.2783  -17.8157  -27.5077 C   0  0  0  0  0  0
  -31.4639  -17.5578  -26.3892 C   0  0  0  0  0  0
  -31.9487  -17.8046  -25.0937 C   0  0  0  0  0  0
  -33.2477  -18.3142  -24.9242 C   0  0  0  0  0  0
  -34.0473  -18.5907  -26.0512 C   0  0  0  0  0  0
  -31.1566  -17.5495  -24.0134 O   0  0  0  0  0  0
  -35.3752  -17.4596  -28.8131 C   0  0  0  0  0  0
  -35.5691  -17.1496  -30.0086 O   0  5  0  0  0  0
  -35.9678  -16.9411  -27.8352 O   0  0  0  0  0  0
  -36.3091  -22.4888  -27.2156 N   0  0  0  0  0  0
  -37.4648  -23.0737  -26.8662 C   0  0  0  0  0  0
  -37.4900  -23.6521  -25.4450 C   0  0  0  0  0  0
  -36.4287  -23.1563  -24.5185 C   0  0  0  0  0  0
  -35.6407  -24.0776  -23.7923 C   0  0  0  0  0  0
  -34.6508  -23.6343  -22.8934 C   0  0  0  0  0  0
  -34.4190  -22.2502  -22.7062 C   0  0  0  0  0  0
  -35.2088  -21.3314  -23.4232 C   0  0  0  0  0  0
  -36.2130  -21.7740  -24.3039 C   0  0  0  0  0  0
  -33.4672  -21.7224  -21.8609 O   0  0  0  0  0  0
  -32.8966  -22.5492  -20.8535 C   0  0  0  0  0  0
  -31.6315  -23.2858  -21.3408 C   0  0  0  0  0  0
  -30.5173  -22.3616  -21.8875 C   0  0  2  0  0  0
  -29.4199  -23.2093  -22.5649 C   0  0  0  0  0  0
  -29.3135  -23.1499  -23.8110 O   0  5  0  0  0  0
  -28.7119  -23.9495  -21.8424 O   0  0  0  0  0  0
  -29.9103  -21.5500  -20.8134 N   0  3  0  0  0  0
  -38.3202  -24.5206  -25.0032 N   0  0  0  0  0  0
  -39.2773  -24.9249  -25.9949 O   0  0  0  0  0  0
  -38.4391  -23.1466  -27.6166 O   0  0  0  0  0  0
  -36.5011  -22.2178  -29.3492 H   0  0  0  0  0  0
  -37.1669  -19.9310  -29.1119 H   0  0  0  0  0  0
  -36.9247  -20.0034  -27.3304 H   0  0  0  0  0  0
  -33.7521  -18.6962  -29.4701 H   0  0  0  0  0  0
  -31.8905  -17.5981  -28.4921 H   0  0  0  0  0  0
  -30.4719  -17.1497  -26.5235 H   0  0  0  0  0  0
  -33.6303  -18.5001  -23.9318 H   0  0  0  0  0  0
  -35.0432  -18.9805  -25.9016 H   0  0  0  0  0  0
  -31.5690  -17.0004  -23.3543 H   0  0  0  0  0  0
  -35.5517  -22.4825  -26.5470 H   0  0  0  0  0  0
  -35.7967  -25.1397  -23.9174 H   0  0  0  0  0  0
  -34.0827  -24.3794  -22.3595 H   0  0  0  0  0  0
  -35.0566  -20.2723  -23.2783 H   0  0  0  0  0  0
  -36.8158  -21.0385  -24.8179 H   0  0  0  0  0  0
  -33.6298  -23.2504  -20.4534 H   0  0  0  0  0  0
  -32.6529  -21.9002  -20.0148 H   0  0  0  0  0  0
  -31.9101  -23.9992  -22.1158 H   0  0  0  0  0  0
  -31.2424  -23.8861  -20.5166 H   0  0  0  0  0  0
  -30.9413  -21.6766  -22.6240 H   0  0  0  0  0  0
  -29.2344  -20.9124  -21.2065 H   0  0  0  0  0  0
  -30.6073  -21.0222  -20.2970 H   0  0  0  0  0  0
  -39.1273  -24.2968  -26.6985 H   0  0  0  0  0  0
  -29.4449  -22.1689  -20.1657 H   0  0  0  0  0  0
  1  2  2  0  0  0
  2  5  1  0  0  0
  2  3  1  0  0  0
  3  4  1  0  0  0
  3 17  1  0  0  0
  3 37  1  0  0  0
  4  5  1  0  0  0
  4 38  1  0  0  0
  4 39  1  0  0  0
  5  6  1  0  0  0
  6  7  1  0  0  0
  6 14  1  0  0  0
  6 40  1  0  0  0
  7 12  1  0  0  0
  7  8  2  0  0  0
  8  9  1  0  0  0
  8 41  1  0  0  0
  9 10  2  0  0  0
  9 42  1  0  0  0
 10 11  1  0  0  0
 10 13  1  0  0  0
 11 12  2  0  0  0
 11 43  1  0  0  0
 12 44  1  0  0  0
 13 45  1  0  0  0
 14 15  1  0  0  0
 14 16  2  0  0  0
 17 18  1  0  0  0
 17 46  1  0  0  0
 18 19  1  0  0  0
 18 36  2  0  0  0
 19 20  1  0  0  0
 19 34  2  3  0  0
 20 25  1  0  0  0
 20 21  2  0  0  0
 21 22  1  0  0  0
 21 47  1  0  0  0
 22 23  2  0  0  0
 22 48  1  0  0  0
 23 24  1  0  0  0
 23 26  1  0  0  0
 24 25  2  0  0  0
 24 49  1  0  0  0
 25 50  1  0  0  0
 26 27  1  0  0  0
 27 28  1  0  0  0
 27 51  1  0  0  0
 27 52  1  0  0  0
 28 29  1  0  0  0
 28 53  1  0  0  0
 28 54  1  0  0  0
 29 30  1  0  0  0
 29 33  1  0  0  0
 29 55  1  0  0  0
 30 31  1  0  0  0
 30 32  2  0  0  0
 33 56  1  0  0  0
 33 57  1  0  0  0
 33 59  1  0  0  0
 34 35  1  0  0  0
 35 58  1  0  0  0
M  CHG  3  15  -1  31  -1  33   1
M  END
> <s_m_entry_id>
27626

> <s_m_entry_name>
data_maestro.29

> <s_m_Source_Path>
C:\Users\olshana1\Git\GramNeg-Accumulation\Gram Negative Permeation - OmpF

> <s_m_Source_File>
data_maestro.csv

> <i_m_Source_File_Index>
29

> <s_m_job_name>
glide-dock_Nicaido_neutral

> <s_i_glide_gridfile>
3POX-grid

> <i_i_glide_lignum>
37

> <i_i_glide_rotatable_bonds>
14

> <r_i_docking_score>
-4.41700421573125

> <r_i_glide_ligand_efficiency>
-0.12269456154809

> <r_i_glide_ligand_efficiency_sa>
-0.405128515582889

> <r_i_glide_ligand_efficiency_ln>
-0.963670986209353

> <r_i_glide_gscore>
-4.41700421573125

> <r_i_glide_lipo>
-0.0265430045215099

> <r_i_glide_hbond>
-1.01303614810773

> <r_i_glide_metal>
0

> <r_i_glide_rewards>
-0.0132551681159917

> <r_i_glide_evdw>
-21.1858253479004

> <r_i_glide_ecoul>
-19.6563148498535

> <r_i_glide_erotb>
0.900147327125679

> <r_i_glide_esite>
-0.256578727238645

> <r_i_glide_emodel>
-60.6684454264693

> <r_i_glide_energy>
-40.8421401977539

> <r_i_glide_einternal>
13.3474168777466

> <i_i_glide_confnum>
700

> <i_i_glide_posenum>
49

> <r_i_glide_eff_state_penalty>
0

> <r_glide_res:A132_vdw>
-0.306097739970225

> <r_glide_res:A132_coul>
-21.786038716073

> <r_glide_res:A132_hbond>
-0.0676896291224943

> <r_glide_res:A132_dist>
2.25750622022304

> <r_glide_res:A132_Eint>
-22.1598260851657

> <r_glide_res:A117_vdw>
-1.51933856656174

> <r_glide_res:A117_coul>
16.8109428718256

> <r_glide_res:A117_hbond>
0

> <r_glide_res:A117_dist>
3.1551151115432

> <r_glide_res:A117_Eint>
15.2916043052638

> <r_glide_res:A113_vdw>
-1.36823622284888

> <r_glide_res:A113_coul>
-17.1484824743869

> <r_glide_res:A113_hbond>
-0.181380114773675

> <r_glide_res:A113_dist>
2.01895001063306

> <r_glide_res:A113_Eint>
-18.6980988120095

> <r_glide_res:A82_vdw>
-1.57153866797382

> <r_glide_res:A82_coul>
-32.9256480824853

> <r_glide_res:A82_hbond>
0

> <r_glide_res:A82_dist>
2.53656270244286

> <r_glide_res:A82_Eint>
-34.4971867504591

> <r_glide_res:A42_vdw>
-0.950403253451809

> <r_glide_res:A42_coul>
-29.5624292826824

> <r_glide_res:A42_hbond>
0

> <r_glide_res:A42_dist>
2.81377950500148

> <r_glide_res:A42_Eint>
-30.5128325361342

> <r_glide_res:A16_vdw>
-1.7364388801685

> <r_glide_res:A16_coul>
-37.1012953774894

> <r_glide_res:A16_hbond>
-0.16

> <r_glide_res:A16_dist>
1.88635773985467

> <r_glide_res:A16_Eint>
-38.9977342576579

> <s_m_source_file>
ligprep_Nicaido_neutral.maegz

> <i_m_source_file_index>
29

> <i_lp_mmshare_version>
58128

> <i_f3d_flags>
0

> <s_lp_Force_Field>
S-OPLS

> <r_lp_Energy>
65.715273

> <b_lp_Chiralities_Consistent>
1

> <s_lp_Variant>
Nocardicin B-2

> <s_epik_input>
W2NIXTFbY0hdYyhbT0hdKVtjSF1bY0hdYzFbQ0BIXShDKD1PKVtPSF0pTjJbQ0gyXVtDQEBIXShDMj1PKVtOSF1DKD1PKS9DKD1OL1tPSF0pYzNbY0hdW2NIXWMoW2NIXVtjSF0zKU9bQ0gyXVtDSDJdW0NAQEhdKFtOSDJdKUMoPU8pW09IXQ==

> <s_epik_cmdline>
J2VwaWtfcHl0aG9uJywgJy1waHQnLCAnMC4wJywgJy1waCcsICc3LjQnLCAnLW50JywgJy1tYScsICc1MDAnLCAnLWltYWUnLCAnPGluZmlsZS5tYWU+JywgJy1vbWFlJywgJzxvdXRmaWxlLm1hZT4n

> <r_lp_tautomer_probability>
1

> <r_epik_Ionization_Penalty>
  0.0116

> <r_epik_Ionization_Penalty_Charging>
  0.0086

> <r_epik_Ionization_Penalty_Neutral>
  0.0030

> <r_epik_State_Penalty>
  0.0000

> <r_epik_Charging_Adjusted_Penalty>
0.0085560600321308

> <i_epik_Tot_Q>
-1

> <i_epik_Tot_abs_Q>
3

> <s_epik_Chemistry_Notes>
This compound has an imine and may undergo hydrolysis.

> <s_m_subgroup_title>
glide-dock_Nicaido_neutral_pv1

> <s_m_subgroupid>
glide-dock_Nicaido_neutral_pv1

> <b_m_subgroup_collapsed>
0

$$$$
Cefacetrile
                    3D
 Schrodinger Suite 2022-2.
 35 36  0  0  1  0            999 V2000
  -19.1223  -22.7904  -24.7445 C   0  0  0  0  0  0
  -20.3633  -22.3878  -25.5276 C   0  0  0  0  0  0
  -21.2607  -23.3895  -25.6134 O   0  0  0  0  0  0
  -22.4829  -23.2019  -26.3183 C   0  0  0  0  0  0
  -23.5491  -22.5696  -25.4381 C   0  0  0  0  0  0
  -24.2036  -23.2583  -24.4649 C   0  0  0  0  0  0
  -25.0919  -22.6259  -23.5733 N   0  0  0  0  0  0
  -25.1891  -21.1793  -23.4562 C   0  0  2  0  0  0
  -26.3437  -21.3950  -22.4577 C   0  0  2  0  0  0
  -26.0413  -22.9094  -22.6035 C   0  0  0  0  0  0
  -26.4652  -23.9496  -22.1462 O   0  0  0  0  0  0
  -27.6604  -20.9234  -22.9164 N   0  0  0  0  0  0
  -28.4581  -21.3903  -23.8946 C   0  0  0  0  0  0
  -29.7754  -20.6402  -24.0738 C   0  0  0  0  0  0
  -30.5944  -21.2004  -25.1569 C   0  0  0  0  0  0
  -31.2332  -21.6462  -26.0133 N   0  0  0  0  0  0
  -28.1836  -22.3499  -24.6230 O   0  0  0  0  0  0
  -25.3559  -20.4694  -25.1221 S   0  0  0  0  0  0
  -23.7774  -21.0895  -25.7432 C   0  0  0  0  0  0
  -23.9687  -24.7963  -24.2604 C   0  0  0  0  0  0
  -23.3669  -25.1494  -23.2228 O   0  5  0  0  0  0
  -24.3691  -25.5496  -25.1773 O   0  0  0  0  0  0
  -20.4769  -21.2636  -26.0142 O   0  0  0  0  0  0
  -19.4016  -23.1863  -23.7686 H   0  0  0  0  0  0
  -18.5650  -23.5530  -25.2882 H   0  0  0  0  0  0
  -18.4724  -21.9282  -24.5951 H   0  0  0  0  0  0
  -22.8240  -24.1744  -26.6678 H   0  0  0  0  0  0
  -22.3349  -22.6036  -27.2172 H   0  0  0  0  0  0
  -24.2994  -20.7787  -22.9652 H   0  0  0  0  0  0
  -26.0882  -20.9947  -21.4762 H   0  0  0  0  0  0
  -28.0047  -20.1143  -22.4173 H   0  0  0  0  0  0
  -29.5770  -19.5921  -24.3013 H   0  0  0  0  0  0
  -30.3553  -20.6792  -23.1509 H   0  0  0  0  0  0
  -22.9689  -20.5039  -25.3057 H   0  0  0  0  0  0
  -23.7557  -20.9176  -26.8196 H   0  0  0  0  0  0
  1  2  1  0  0  0
  1 24  1  0  0  0
  1 25  1  0  0  0
  1 26  1  0  0  0
  2  3  1  0  0  0
  2 23  2  0  0  0
  3  4  1  0  0  0
  4  5  1  0  0  0
  4 27  1  0  0  0
  4 28  1  0  0  0
  5 19  1  0  0  0
  5  6  2  0  0  0
  6  7  1  0  0  0
  6 20  1  0  0  0
  7 10  1  0  0  0
  7  8  1  0  0  0
  8  9  1  0  0  0
  8 18  1  0  0  0
  8 29  1  0  0  0
  9 10  1  0  0  0
  9 12  1  0  0  0
  9 30  1  0  0  0
 10 11  2  0  0  0
 12 13  1  0  0  0
 12 31  1  0  0  0
 13 14  1  0  0  0
 13 17  2  0  0  0
 14 15  1  0  0  0
 14 32  1  0  0  0
 14 33  1  0  0  0
 15 16  3  0  0  0
 18 19  1  0  0  0
 19 34  1  0  0  0
 19 35  1  0  0  0
 20 21  1  0  0  0
 20 22  2  0  0  0
M  CHG  1  21  -1
M  END
> <s_m_entry_id>
27627

> <s_m_entry_name>
data_maestro.1

> <s_m_Source_Path>
C:\Users\olshana1\Git\GramNeg-Accumulation\Gram Negative Permeation - OmpF

> <s_m_Source_File>
data_maestro.csv

> <i_m_Source_File_Index>
1

> <s_m_job_name>
glide-dock_Nicaido_neutral

> <s_i_glide_gridfile>
3POX-grid

> <i_i_glide_lignum>
1

> <i_i_glide_rotatable_bonds>
7

> <r_i_docking_score>
-4.41539398665397

> <r_i_glide_ligand_efficiency>
-0.191973651593651

> <r_i_glide_ligand_efficiency_sa>
-0.545947528198107

> <r_i_glide_ligand_efficiency_ln>
-1.06768230255206

> <r_i_glide_gscore>
-4.41539398665397

> <r_i_glide_lipo>
0

> <r_i_glide_hbond>
-0.680122639462219

> <r_i_glide_metal>
0

> <r_i_glide_rewards>
-1.10238469528505

> <r_i_glide_evdw>
-22.0957870483398

> <r_i_glide_ecoul>
-11.6115999221802

> <r_i_glide_erotb>
0.660867222788296

> <r_i_glide_esite>
-0.447224533950972

> <r_i_glide_emodel>
-52.2733121190439

> <r_i_glide_energy>
-33.70738697052

> <r_i_glide_einternal>
7.61150598526001

> <i_i_glide_confnum>
14

> <i_i_glide_posenum>
181

> <r_i_glide_eff_state_penalty>
0

> <r_glide_res:A132_vdw>
-1.32921192969124

> <r_glide_res:A132_coul>
-36.8124761035433

> <r_glide_res:A132_hbond>
-0.0700061059961872

> <r_glide_res:A132_dist>
2.22147989428327

> <r_glide_res:A132_Eint>
-38.2116941392308

> <r_glide_res:A117_vdw>
-2.18223988523012

> <r_glide_res:A117_coul>
17.407443990163

> <r_glide_res:A117_hbond>
0

> <r_glide_res:A117_dist>
3.44772374611966

> <r_glide_res:A117_Eint>
15.2252041049329

> <r_glide_res:A113_vdw>
-0.360919092351426

> <r_glide_res:A113_coul>
12.2517231447166

> <r_glide_res:A113_hbond>
0

> <r_glide_res:A113_dist>
4.59562007677898

> <r_glide_res:A113_Eint>
11.8908040523651

> <r_glide_res:A82_vdw>
-1.99962128761479

> <r_glide_res:A82_coul>
-48.2988859171296

> <r_glide_res:A82_hbond>
-0.340132145166969

> <r_glide_res:A82_dist>
1.99361850532894

> <r_glide_res:A82_Eint>
-50.6386393499114

> <r_glide_res:A42_vdw>
-3.42188182395357

> <r_glide_res:A42_coul>
-43.1487072228456

> <r_glide_res:A42_hbond>
-0.145964702781024

> <r_glide_res:A42_dist>
2.13508824304744

> <r_glide_res:A42_Eint>
-46.7165537495802

> <r_glide_res:A16_vdw>
-0.275821386685667

> <r_glide_res:A16_coul>
-27.4575923794605

> <r_glide_res:A16_hbond>
-0.0312881172063329

> <r_glide_res:A16_dist>
2.35715130310494

> <r_glide_res:A16_Eint>
-27.7647018833525

> <s_m_source_file>
ligprep_Nicaido_neutral.maegz

> <i_m_source_file_index>
1

> <i_lp_mmshare_version>
58128

> <i_f3d_flags>
0

> <s_lp_Force_Field>
S-OPLS

> <r_lp_Energy>
24.277434

> <b_lp_Chiralities_Consistent>
1

> <s_lp_Variant>
Cefacetrile-1

> <s_epik_input>
W0NIM11DKD1PKU9bQ0gyXUMoPUMxQyg9TylbT0hdKVtDSDJdU1tDQEhdKE4xMilbQ0BIXShDMj1PKVtOSF1DKD1PKVtDSDJdQyNO

> <s_epik_cmdline>
J2VwaWtfcHl0aG9uJywgJy1waHQnLCAnMC4wJywgJy1waCcsICc3LjQnLCAnLW50JywgJy1tYScsICc1MDAnLCAnLWltYWUnLCAnPGluZmlsZS5tYWU+JywgJy1vbWFlJywgJzxvdXRmaWxlLm1hZT4n

> <r_lp_tautomer_probability>
1

> <r_epik_Ionization_Penalty>
  0.0000

> <r_epik_Ionization_Penalty_Charging>
  0.0000

> <r_epik_Ionization_Penalty_Neutral>
  0.0000

> <r_epik_State_Penalty>
  0.0000

> <r_epik_Charging_Adjusted_Penalty>
5.96156609429709e-06

> <i_epik_Tot_Q>
-1

> <i_epik_Tot_abs_Q>
1

> <s_epik_Chemistry_Notes>
This compound has an ester and may undergo hydrolysis at high or low pH. This compound contains an acetal/aminal-like group ( X-CH(R)-Y where X, Y are N, S, or O) that may be acid/base labile, releasing an aldehyde.

> <s_m_subgroup_title>
glide-dock_Nicaido_neutral_pv1

> <s_m_subgroupid>
glide-dock_Nicaido_neutral_pv1

> <b_m_subgroup_collapsed>
0

$$$$
Ceftizoxime
                    3D
 Schrodinger Suite 2022-2.
 37 39  0  0  1  0            999 V2000
  -24.6276  -24.6070  -17.5239 C   0  0  0  0  0  0
  -25.4754  -24.2131  -18.5798 O   0  0  0  0  0  0
  -25.1530  -22.8865  -18.8892 N   0  0  0  0  0  0
  -26.0532  -22.2376  -19.5197 C   0  0  0  0  0  0
  -25.7333  -20.8495  -19.9101 C   0  0  0  0  0  0
  -25.5751  -19.8620  -18.9688 C   0  0  0  0  0  0
  -25.1047  -18.3499  -19.6906 S   0  0  0  0  0  0
  -25.1258  -19.1352  -21.2611 C   0  0  0  0  0  0
  -24.7689  -18.4645  -22.4142 N   0  0  0  0  0  0
  -25.4778  -20.4195  -21.2177 N   0  0  0  0  0  0
  -27.4273  -22.7495  -19.9551 C   0  0  0  0  0  0
  -28.3047  -21.8010  -20.3286 N   0  0  0  0  0  0
  -29.6234  -22.0670  -20.9138 C   0  0  1  0  0  0
  -30.0930  -20.8887  -21.7901 C   0  0  1  0  0  0
  -30.2324  -21.8387  -22.8779 N   0  0  0  0  0  0
  -29.5734  -22.8780  -22.2382 C   0  0  0  0  0  0
  -29.1195  -23.9429  -22.6166 O   0  0  0  0  0  0
  -30.6327  -21.4062  -24.1534 C   0  0  0  0  0  0
  -30.3102  -22.3113  -25.3674 C   0  0  0  0  0  0
  -29.9690  -21.7215  -26.4136 O   0  5  0  0  0  0
  -30.3687  -23.5493  -25.2133 O   0  0  0  0  0  0
  -31.3118  -20.2511  -24.3414 C   0  0  0  0  0  0
  -31.7333  -19.2817  -23.2513 C   0  0  0  0  0  0
  -31.7021  -20.0470  -21.6135 S   0  0  0  0  0  0
  -27.6933  -23.9496  -20.0099 O   0  0  0  0  0  0
  -24.8873  -25.6155  -17.2138 H   0  0  0  0  0  0
  -23.5794  -24.5932  -17.8234 H   0  0  0  0  0  0
  -24.7574  -23.9492  -16.6614 H   0  0  0  0  0  0
  -25.7101  -19.9242  -17.8987 H   0  0  0  0  0  0
  -24.9923  -18.8919  -23.3020 H   0  0  0  0  0  0
  -24.8905  -17.4608  -22.4234 H   0  0  0  0  0  0
  -28.0520  -20.8286  -20.2178 H   0  0  0  0  0  0
  -30.3695  -22.4067  -20.2020 H   0  0  0  0  0  0
  -29.2983  -20.1696  -22.0060 H   0  0  0  0  0  0
  -31.5854  -19.9565  -25.3436 H   0  0  0  0  0  0
  -31.0666  -18.4187  -23.2643 H   0  0  0  0  0  0
  -32.7427  -18.9214  -23.4494 H   0  0  0  0  0  0
  1  2  1  0  0  0
  1 26  1  0  0  0
  1 27  1  0  0  0
  1 28  1  0  0  0
  2  3  1  0  0  0
  3  4  2  3  0  0
  4  5  1  0  0  0
  4 11  1  0  0  0
  5 10  1  0  0  0
  5  6  2  0  0  0
  6  7  1  0  0  0
  6 29  1  0  0  0
  7  8  1  0  0  0
  8  9  1  0  0  0
  8 10  2  0  0  0
  9 30  1  0  0  0
  9 31  1  0  0  0
 11 12  1  0  0  0
 11 25  2  0  0  0
 12 13  1  0  0  0
 12 32  1  0  0  0
 13 16  1  0  0  0
 13 14  1  0  0  0
 13 33  1  0  0  0
 14 24  1  0  0  0
 14 15  1  0  0  0
 14 34  1  0  0  0
 15 16  1  0  0  0
 15 18  1  0  0  0
 16 17  2  0  0  0
 18 19  1  0  0  0
 18 22  2  0  0  0
 19 20  1  0  0  0
 19 21  2  0  0  0
 22 23  1  0  0  0
 22 35  1  0  0  0
 23 24  1  0  0  0
 23 36  1  0  0  0
 23 37  1  0  0  0
M  CHG  1  20  -1
M  END
> <s_m_entry_id>
27628

> <s_m_entry_name>
data_maestro.5

> <s_m_Source_Path>
C:\Users\olshana1\Git\GramNeg-Accumulation\Gram Negative Permeation - OmpF

> <s_m_Source_File>
data_maestro.csv

> <i_m_Source_File_Index>
5

> <s_m_job_name>
glide-dock_Nicaido_neutral

> <s_i_glide_gridfile>
3POX-grid

> <i_i_glide_lignum>
6

> <i_i_glide_rotatable_bonds>
6

> <r_i_docking_score>
-4.41269587516882

> <r_i_glide_ligand_efficiency>
-0.176507835006753

> <r_i_glide_ligand_efficiency_sa>
-0.516112039939528

> <r_i_glide_ligand_efficiency_ln>
-1.04594116023945

> <r_i_glide_gscore>
-4.41269587516882

> <r_i_glide_lipo>
0

> <r_i_glide_hbond>
-0.795291831444115

> <r_i_glide_metal>
0

> <r_i_glide_rewards>
-0.760411999858325

> <r_i_glide_evdw>
-24.3646621704102

> <r_i_glide_ecoul>
-10.7826194763184

> <r_i_glide_erotb>
0.664075194683877

> <r_i_glide_esite>
-0.685441208581993

> <r_i_glide_emodel>
-53.2784645558894

> <r_i_glide_energy>
-35.1472816467285

> <r_i_glide_einternal>
6.0310378074646

> <i_i_glide_confnum>
17

> <i_i_glide_posenum>
9

> <r_i_glide_eff_state_penalty>
0

> <r_glide_res:A132_vdw>
-1.75506702009546

> <r_glide_res:A132_coul>
-37.5433239884876

> <r_glide_res:A132_hbond>
-0.16

> <r_glide_res:A132_dist>
1.89329097743629

> <r_glide_res:A132_Eint>
-39.4583910085831

> <r_glide_res:A117_vdw>
-2.60909135228946

> <r_glide_res:A117_coul>
18.0904878732966

> <r_glide_res:A117_hbond>
-0.00387771214264586

> <r_glide_res:A117_dist>
2.48212827689522

> <r_glide_res:A117_Eint>
15.4775188088645

> <r_glide_res:A113_vdw>
-2.89721279039297

> <r_glide_res:A113_coul>
17.8294615421182

> <r_glide_res:A113_hbond>
0

> <r_glide_res:A113_dist>
2.2714084077532

> <r_glide_res:A113_Eint>
14.9322487517253

> <r_glide_res:A82_vdw>
-1.5366618875873

> <r_glide_res:A82_coul>
-44.9138148530342

> <r_glide_res:A82_hbond>
-0.16

> <r_glide_res:A82_dist>
1.99220887160114

> <r_glide_res:A82_Eint>
-46.6104767406215

> <r_glide_res:A42_vdw>
0.469597812135647

> <r_glide_res:A42_coul>
-47.6198131875769

> <r_glide_res:A42_hbond>
-0.271414119301469

> <r_glide_res:A42_dist>
1.91080141705956

> <r_glide_res:A42_Eint>
-47.4216294947427

> <r_glide_res:A16_vdw>
0.202817920657536

> <r_glide_res:A16_coul>
-46.7614306963926

> <r_glide_res:A16_hbond>
-0.2

> <r_glide_res:A16_dist>
1.82467452676994

> <r_glide_res:A16_Eint>
-46.7586127757351

> <s_m_source_file>
ligprep_Nicaido_neutral.maegz

> <i_m_source_file_index>
5

> <i_lp_mmshare_version>
58128

> <i_f3d_flags>
0

> <s_lp_Force_Field>
S-OPLS

> <r_lp_Energy>
52.500132

> <b_lp_Chiralities_Consistent>
1

> <s_lp_Variant>
Ceftizoxime-2

> <s_epik_input>
W05IMl1jKG4xKXNbY0hdYzEvQyg9TlxPW0NIM10pQyg9TylbTkhdW0NAQEhdMkMoPU8pTihbQ0BIXTIzKUMoQyg9TylbT0hdKT1bQ0hdW0NIMl1TMw==

> <s_epik_cmdline>
J2VwaWtfcHl0aG9uJywgJy1waHQnLCAnMC4wJywgJy1waCcsICc3LjQnLCAnLW50JywgJy1tYScsICc1MDAnLCAnLWltYWUnLCAnPGluZmlsZS5tYWU+JywgJy1vbWFlJywgJzxvdXRmaWxlLm1hZT4n

> <r_lp_tautomer_probability>
1

> <r_epik_Ionization_Penalty>
  0.0005

> <r_epik_Ionization_Penalty_Charging>
  0.0000

> <r_epik_Ionization_Penalty_Neutral>
  0.0005

> <r_epik_State_Penalty>
  0.0000

> <r_epik_Charging_Adjusted_Penalty>
4.86746471452517e-05

> <i_epik_Tot_Q>
-1

> <i_epik_Tot_abs_Q>
1

> <s_epik_Chemistry_Notes>
This compound has an imine and may undergo hydrolysis. This compound contains an acetal/aminal-like group ( X-CH(R)-Y where X, Y are N, S, or O) that may be acid/base labile, releasing an aldehyde.

> <s_m_subgroup_title>
glide-dock_Nicaido_neutral_pv1

> <s_m_subgroupid>
glide-dock_Nicaido_neutral_pv1

> <b_m_subgroup_collapsed>
0

$$$$
Cefotaxime
                    3D
 Schrodinger Suite 2022-2.
 46 48  0  0  1  0            999 V2000
  -18.2138  -22.3900  -24.8406 C   0  0  0  0  0  0
  -19.4434  -23.1553  -25.3134 C   0  0  0  0  0  0
  -20.5366  -22.3827  -25.3481 O   0  0  0  0  0  0
  -21.7906  -22.8991  -25.7792 C   0  0  0  0  0  0
  -22.9172  -22.3423  -24.9153 C   0  0  0  0  0  0
  -23.7600  -23.1181  -24.1780 C   0  0  0  0  0  0
  -24.8136  -22.5612  -23.4268 N   0  0  0  0  0  0
  -25.3738  -21.2678  -23.7678 C   0  0  1  0  0  0
  -26.3860  -21.4601  -22.6239 C   0  0  2  0  0  0
  -25.8072  -22.9048  -22.5204 C   0  0  0  0  0  0
  -26.1025  -23.9496  -21.9780 O   0  0  0  0  0  0
  -27.7744  -21.3121  -23.1038 N   0  0  0  0  0  0
  -28.4155  -22.0838  -24.0078 C   0  0  0  0  0  0
  -29.7061  -21.5417  -24.5870 C   0  0  0  0  0  0
  -30.1761  -20.2637  -24.0128 C   0  0  0  0  0  0
  -30.2064  -19.1178  -24.7678 C   0  0  0  0  0  0
  -30.7690  -17.7641  -23.8451 S   0  0  0  0  0  0
  -30.9159  -18.8136  -22.4418 C   0  0  0  0  0  0
  -31.3380  -18.3494  -21.2132 N   0  0  0  0  0  0
  -30.5768  -20.0765  -22.6875 N   0  0  0  0  0  0
  -30.2874  -22.1743  -25.5328 N   0  0  0  0  0  0
  -31.4410  -21.5368  -26.0080 O   0  0  0  0  0  0
  -32.3483  -22.5389  -26.4330 C   0  0  0  0  0  0
  -27.9687  -23.1498  -24.4141 O   0  0  0  0  0  0
  -24.0301  -20.0595  -23.6974 S   0  0  0  0  0  0
  -23.0130  -20.8133  -24.9915 C   0  0  0  0  0  0
  -23.6295  -24.6787  -24.1300 C   0  0  0  0  0  0
  -24.3686  -25.3328  -24.8991 O   0  5  0  0  0  0
  -22.7687  -25.1493  -23.3566 O   0  0  0  0  0  0
  -19.3840  -24.3495  -25.6132 O   0  0  0  0  0  0
  -18.3531  -22.0511  -23.8121 H   0  0  0  0  0  0
  -17.3286  -23.0239  -24.8813 H   0  0  0  0  0  0
  -18.0450  -21.5169  -25.4725 H   0  0  0  0  0  0
  -21.7993  -23.9896  -25.7854 H   0  0  0  0  0  0
  -21.9595  -22.5879  -26.8114 H   0  0  0  0  0  0
  -25.8142  -21.2922  -24.7680 H   0  0  0  0  0  0
  -26.1602  -20.8275  -21.7651 H   0  0  0  0  0  0
  -28.2536  -20.4776  -22.7879 H   0  0  0  0  0  0
  -29.9286  -18.9834  -25.8020 H   0  0  0  0  0  0
  -31.1684  -18.9162  -20.3783 H   0  0  0  0  0  0
  -31.3159  -17.3522  -21.0554 H   0  0  0  0  0  0
  -33.2591  -22.0682  -26.8014 H   0  0  0  0  0  0
  -31.9303  -23.1432  -27.2381 H   0  0  0  0  0  0
  -32.6271  -23.1965  -25.6056 H   0  0  0  0  0  0
  -22.0238  -20.3618  -24.9262 H   0  0  0  0  0  0
  -23.4228  -20.5418  -25.9640 H   0  0  0  0  0  0
  1  2  1  0  0  0
  1 31  1  0  0  0
  1 32  1  0  0  0
  1 33  1  0  0  0
  2  3  1  0  0  0
  2 30  2  0  0  0
  3  4  1  0  0  0
  4  5  1  0  0  0
  4 34  1  0  0  0
  4 35  1  0  0  0
  5 26  1  0  0  0
  5  6  2  0  0  0
  6  7  1  0  0  0
  6 27  1  0  0  0
  7 10  1  0  0  0
  7  8  1  0  0  0
  8  9  1  0  0  0
  8 25  1  0  0  0
  8 36  1  0  0  0
  9 10  1  0  0  0
  9 12  1  0  0  0
  9 37  1  0  0  0
 10 11  2  0  0  0
 12 13  1  0  0  0
 12 38  1  0  0  0
 13 14  1  0  0  0
 13 24  2  0  0  0
 14 15  1  0  0  0
 14 21  2  3  0  0
 15 20  1  0  0  0
 15 16  2  0  0  0
 16 17  1  0  0  0
 16 39  1  0  0  0
 17 18  1  0  0  0
 18 19  1  0  0  0
 18 20  2  0  0  0
 19 40  1  0  0  0
 19 41  1  0  0  0
 21 22  1  0  0  0
 22 23  1  0  0  0
 23 42  1  0  0  0
 23 43  1  0  0  0
 23 44  1  0  0  0
 25 26  1  0  0  0
 26 45  1  0  0  0
 26 46  1  0  0  0
 27 28  1  0  0  0
 27 29  2  0  0  0
M  CHG  1  28  -1
M  END
> <s_m_entry_id>
27629

> <s_m_entry_name>
data_maestro.6

> <s_m_Source_Path>
C:\Users\olshana1\Git\GramNeg-Accumulation\Gram Negative Permeation - OmpF

> <s_m_Source_File>
data_maestro.csv

> <i_m_Source_File_Index>
6

> <s_m_job_name>
glide-dock_Nicaido_neutral

> <s_i_glide_gridfile>
3POX-grid

> <i_i_glide_lignum>
7

> <i_i_glide_rotatable_bonds>
9

> <r_i_docking_score>
-4.41225279516943

> <r_i_glide_ligand_efficiency>
-0.147075093172314

> <r_i_glide_ligand_efficiency_sa>
-0.456996509803096

> <r_i_glide_ligand_efficiency_ln>
-1.00251191040723

> <r_i_glide_gscore>
-4.41225279516943

> <r_i_glide_lipo>
0

> <r_i_glide_hbond>
-0.868286786300088

> <r_i_glide_metal>
0

> <r_i_glide_rewards>
-0.0745250443243868

> <r_i_glide_evdw>
-28.9919624328613

> <r_i_glide_ecoul>
-13.1271047592163

> <r_i_glide_erotb>
0.680611118548691

> <r_i_glide_esite>
-0.731388247568133

> <r_i_glide_emodel>
-60.3663710624598

> <r_i_glide_energy>
-42.1190671920776

> <r_i_glide_einternal>
9.79490756988525

> <i_i_glide_confnum>
212

> <i_i_glide_posenum>
186

> <r_i_glide_eff_state_penalty>
0

> <r_glide_res:A132_vdw>
-1.00904732484318

> <r_glide_res:A132_coul>
-38.018644210348

> <r_glide_res:A132_hbond>
-0.118461429430342

> <r_glide_res:A132_dist>
2.07549475774218

> <r_glide_res:A132_Eint>
-39.1461529646215

> <r_glide_res:A117_vdw>
-4.27048093877889

> <r_glide_res:A117_coul>
15.3121104758816

> <r_glide_res:A117_hbond>
0

> <r_glide_res:A117_dist>
3.14974551809855

> <r_glide_res:A117_Eint>
11.0416295371028

> <r_glide_res:A113_vdw>
-1.56348805720146

> <r_glide_res:A113_coul>
12.665291738575

> <r_glide_res:A113_hbond>
-0.16

> <r_glide_res:A113_dist>
1.99205000913135

> <r_glide_res:A113_Eint>
10.9418036813735

> <r_glide_res:A82_vdw>
-2.22348649200625

> <r_glide_res:A82_coul>
-47.5031256636315

> <r_glide_res:A82_hbond>
-0.214283197526541

> <r_glide_res:A82_dist>
2.0314373041981

> <r_glide_res:A82_Eint>
-49.9408953531643

> <r_glide_res:A42_vdw>
-2.9077783280309

> <r_glide_res:A42_coul>
-36.7644718291145

> <r_glide_res:A42_hbond>
-0.127023264473496

> <r_glide_res:A42_dist>
2.07346294373013

> <r_glide_res:A42_Eint>
-39.7992734216189

> <r_glide_res:A16_vdw>
-1.56316859401042

> <r_glide_res:A16_coul>
-19.7046825082433

> <r_glide_res:A16_hbond>
0

> <r_glide_res:A16_dist>
2.43282340224927

> <r_glide_res:A16_Eint>
-21.2678511022537

> <s_m_source_file>
ligprep_Nicaido_neutral.maegz

> <i_m_source_file_index>
6

> <i_lp_mmshare_version>
58128

> <i_f3d_flags>
0

> <s_lp_Force_Field>
S-OPLS

> <r_lp_Energy>
53.728996

> <b_lp_Chiralities_Consistent>
1

> <s_lp_Variant>
Cefotaxime-1

> <s_epik_input>
W0NIM11DKD1PKU9bQ0gyXUMoPUMxQyg9TylbT0hdKVtDSDJdU1tDQEBIXShOMTIpW0NASF0oQzI9TylbTkhdQyg9TykvQyg9Ti9PW0NIM10pYzNbY0hdc2MobjMpW05IMl0=

> <s_epik_cmdline>
J2VwaWtfcHl0aG9uJywgJy1waHQnLCAnMC4wJywgJy1waCcsICc3LjQnLCAnLW50JywgJy1tYScsICc1MDAnLCAnLWltYWUnLCAnPGluZmlsZS5tYWU+JywgJy1vbWFlJywgJzxvdXRmaWxlLm1hZT4n

> <r_lp_tautomer_probability>
1

> <r_epik_Ionization_Penalty>
  0.0004

> <r_epik_Ionization_Penalty_Charging>
  0.0000

> <r_epik_Ionization_Penalty_Neutral>
  0.0004

> <r_epik_State_Penalty>
  0.0000

> <r_epik_Charging_Adjusted_Penalty>
5.45682606121274e-06

> <i_epik_Tot_Q>
-1

> <i_epik_Tot_abs_Q>
1

> <s_epik_Chemistry_Notes>
This compound has an ester and may undergo hydrolysis at high or low pH. This compound has an imine and may undergo hydrolysis. This compound contains an acetal/aminal-like group ( X-CH(R)-Y where X, Y are N, S, or O) that may be acid/base labile, releasing an aldehyde.

> <s_m_subgroup_title>
glide-dock_Nicaido_neutral_pv1

> <s_m_subgroupid>
glide-dock_Nicaido_neutral_pv1

> <b_m_subgroup_collapsed>
0

$$$$
Cefmetazole
                    3D
 Schrodinger Suite 2022-2.
 46 48  0  0  1  0            999 V2000
  -22.3101  -22.6474  -21.6058 C   0  0  0  0  0  0
  -22.8875  -23.8511  -22.1713 N   0  0  0  0  0  0
  -23.7722  -24.0469  -23.1578 C   0  0  0  0  0  0
  -24.5328  -22.7723  -24.0924 S   0  0  0  0  0  0
  -25.7368  -22.1980  -22.8563 C   0  0  0  0  0  0
  -26.7863  -21.2942  -23.4969 C   0  0  0  0  0  0
  -28.0438  -21.6670  -23.8893 C   0  0  0  0  0  0
  -28.8992  -20.7616  -24.5820 N   0  0  0  0  0  0
  -28.6495  -19.3322  -24.6272 C   0  0  2  0  0  0
  -29.8763  -19.1810  -25.5456 C   0  0  1  0  0  0
  -29.6058  -18.7767  -26.8907 O   0  0  0  0  0  0
  -29.4946  -17.3741  -27.0904 C   0  0  0  0  0  0
  -29.9746  -20.7210  -25.4723 C   0  0  0  0  0  0
  -30.6543  -21.5675  -26.0138 O   0  0  0  0  0  0
  -30.9965  -18.4941  -24.8969 N   0  0  0  0  0  0
  -32.2678  -18.5112  -25.3255 C   0  0  0  0  0  0
  -33.2961  -17.8391  -24.4240 C   0  0  0  0  0  0
  -33.9715  -16.3224  -25.1449 S   0  0  0  0  0  0
  -34.9515  -15.7891  -23.7187 C   0  0  0  0  0  0
  -35.2955  -14.3610  -23.8041 C   0  0  0  0  0  0
  -35.5683  -13.2373  -23.8672 N   0  0  0  0  0  0
  -32.6216  -19.0443  -26.3778 O   0  0  0  0  0  0
  -26.9595  -19.1496  -25.2128 S   0  0  0  0  0  0
  -26.2156  -19.9028  -23.7616 C   0  0  0  0  0  0
  -28.5679  -23.1487  -23.7988 C   0  0  0  0  0  0
  -28.2602  -23.8611  -22.8134 O   0  5  0  0  0  0
  -29.1698  -23.5496  -24.8133 O   0  0  0  0  0  0
  -23.9680  -25.3441  -23.3602 N   0  0  0  0  0  0
  -23.1688  -25.9499  -22.4130 N   0  0  0  0  0  0
  -22.5173  -25.0716  -21.7115 N   0  0  0  0  0  0
  -21.3126  -22.4923  -22.0189 H   0  0  0  0  0  0
  -22.9237  -21.7765  -21.8389 H   0  0  0  0  0  0
  -22.2368  -22.7435  -20.5209 H   0  0  0  0  0  0
  -25.2154  -21.6276  -22.0877 H   0  0  0  0  0  0
  -26.1445  -23.0530  -22.3301 H   0  0  0  0  0  0
  -28.7774  -18.8723  -23.6450 H   0  0  0  0  0  0
  -29.1701  -17.1853  -28.1116 H   0  0  0  0  0  0
  -30.4516  -16.8690  -26.9593 H   0  0  0  0  0  0
  -28.7692  -16.9262  -26.4132 H   0  0  0  0  0  0
  -30.7941  -18.0155  -24.0312 H   0  0  0  0  0  0
  -32.8447  -17.5993  -23.4600 H   0  0  0  0  0  0
  -34.1111  -18.5358  -24.2277 H   0  0  0  0  0  0
  -34.3685  -15.9497  -22.8138 H   0  0  0  0  0  0
  -35.8658  -16.3772  -23.6418 H   0  0  0  0  0  0
  -26.3770  -19.2673  -22.8900 H   0  0  0  0  0  0
  -25.1404  -19.9404  -23.9352 H   0  0  0  0  0  0
  1  2  1  0  0  0
  1 31  1  0  0  0
  1 32  1  0  0  0
  1 33  1  0  0  0
  2 30  1  0  0  0
  2  3  1  0  0  0
  3  4  1  0  0  0
  3 28  2  0  0  0
  4  5  1  0  0  0
  5  6  1  0  0  0
  5 34  1  0  0  0
  5 35  1  0  0  0
  6 24  1  0  0  0
  6  7  2  0  0  0
  7  8  1  0  0  0
  7 25  1  0  0  0
  8 13  1  0  0  0
  8  9  1  0  0  0
  9 10  1  0  0  0
  9 23  1  0  0  0
  9 36  1  0  0  0
 10 11  1  0  0  0
 10 13  1  0  0  0
 10 15  1  0  0  0
 11 12  1  0  0  0
 12 37  1  0  0  0
 12 38  1  0  0  0
 12 39  1  0  0  0
 13 14  2  0  0  0
 15 16  1  0  0  0
 15 40  1  0  0  0
 16 17  1  0  0  0
 16 22  2  0  0  0
 17 18  1  0  0  0
 17 41  1  0  0  0
 17 42  1  0  0  0
 18 19  1  0  0  0
 19 20  1  0  0  0
 19 43  1  0  0  0
 19 44  1  0  0  0
 20 21  3  0  0  0
 23 24  1  0  0  0
 24 45  1  0  0  0
 24 46  1  0  0  0
 25 26  1  0  0  0
 25 27  2  0  0  0
 28 29  1  0  0  0
 29 30  2  0  0  0
M  CHG  1  26  -1
M  END
> <s_m_entry_id>
27630

> <s_m_entry_name>
data_maestro.3

> <s_m_Source_Path>
C:\Users\olshana1\Git\GramNeg-Accumulation\Gram Negative Permeation - OmpF

> <s_m_Source_File>
data_maestro.csv

> <i_m_Source_File_Index>
3

> <s_m_job_name>
glide-dock_Nicaido_neutral

> <s_i_glide_gridfile>
3POX-grid

> <i_i_glide_lignum>
3

> <i_i_glide_rotatable_bonds>
10

> <r_i_docking_score>
-4.41186533615414

> <r_i_glide_ligand_efficiency>
-0.147062177871805

> <r_i_glide_ligand_efficiency_sa>
-0.456956378961573

> <r_i_glide_ligand_efficiency_ln>
-1.00242387549725

> <r_i_glide_gscore>
-4.41186533615414

> <r_i_glide_lipo>
0

> <r_i_glide_hbond>
-0.555913075556667

> <r_i_glide_metal>
0

> <r_i_glide_rewards>
-0.254075620753879

> <r_i_glide_evdw>
-31.1508941650391

> <r_i_glide_ecoul>
-13.501335144043

> <r_i_glide_erotb>
0.638850535935238

> <r_i_glide_esite>
-0.657982195920429

> <r_i_glide_emodel>
-65.2103447323607

> <r_i_glide_energy>
-44.652229309082

> <r_i_glide_einternal>
7.29875230789185

> <i_i_glide_confnum>
123

> <i_i_glide_posenum>
220

> <r_i_glide_eff_state_penalty>
0

> <r_glide_res:A132_vdw>
-1.77877656505915

> <r_glide_res:A132_coul>
-33.6051415998982

> <r_glide_res:A132_hbond>
0

> <r_glide_res:A132_dist>
2.59692675669107

> <r_glide_res:A132_Eint>
-35.3839181649573

> <r_glide_res:A117_vdw>
-4.08201724001829

> <r_glide_res:A117_coul>
18.6093624662213

> <r_glide_res:A117_hbond>
0

> <r_glide_res:A117_dist>
2.17292454312812

> <r_glide_res:A117_Eint>
14.527345226203

> <r_glide_res:A113_vdw>
-0.588627196403813

> <r_glide_res:A113_coul>
18.1813668418931

> <r_glide_res:A113_hbond>
0

> <r_glide_res:A113_dist>
5.2045247908091

> <r_glide_res:A113_Eint>
17.5927396454893

> <r_glide_res:A82_vdw>
-0.820199371844289

> <r_glide_res:A82_coul>
-51.0959289679506

> <r_glide_res:A82_hbond>
-0.272370344770628

> <r_glide_res:A82_dist>
1.94888897482632

> <r_glide_res:A82_Eint>
-52.1884986845656

> <r_glide_res:A42_vdw>
0.145835668516534

> <r_glide_res:A42_coul>
-50.6190642880668

> <r_glide_res:A42_hbond>
-0.175812564379183

> <r_glide_res:A42_dist>
1.74975557311081

> <r_glide_res:A42_Eint>
-50.6490411839295

> <r_glide_res:A16_vdw>
-1.69849723039001

> <r_glide_res:A16_coul>
-40.8320771680216

> <r_glide_res:A16_hbond>
-0.107730166406856

> <r_glide_res:A16_dist>
2.17495128023432

> <r_glide_res:A16_Eint>
-42.6383045648185

> <s_m_source_file>
ligprep_Nicaido_neutral.maegz

> <i_m_source_file_index>
3

> <i_lp_mmshare_version>
58128

> <i_f3d_flags>
0

> <s_lp_Force_Field>
S-OPLS

> <r_lp_Energy>
32.161431

> <b_lp_Chiralities_Consistent>
1

> <s_lp_Variant>
Cefmetazole-1

> <s_epik_input>
bjFubmMobjFbQ0gzXSlTW0NIMl1DKD1DMkMoPU8pW09IXSlbQ0gyXVNbQ0BIXShOMjMpW0NAXShDMz1PKShPW0NIM10pW05IXUMoPU8pW0NIMl1TW0NIMl1DI04=

> <s_epik_cmdline>
J2VwaWtfcHl0aG9uJywgJy1waHQnLCAnMC4wJywgJy1waCcsICc3LjQnLCAnLW50JywgJy1tYScsICc1MDAnLCAnLWltYWUnLCAnPGluZmlsZS5tYWU+JywgJy1vbWFlJywgJzxvdXRmaWxlLm1hZT4n

> <r_lp_tautomer_probability>
1

> <r_epik_Ionization_Penalty>
  0.0000

> <r_epik_Ionization_Penalty_Charging>
  0.0000

> <r_epik_Ionization_Penalty_Neutral>
  0.0000

> <r_epik_State_Penalty>
  0.0000

> <r_epik_Charging_Adjusted_Penalty>
8.27330724987756e-06

> <i_epik_Tot_Q>
-1

> <i_epik_Tot_abs_Q>
1

> <s_epik_Chemistry_Notes>
This compound contains an acetal/aminal-like group ( X-CH(R)-Y where X, Y are N, S, or O) that may be acid/base labile, releasing an aldehyde.

> <s_m_subgroup_title>
glide-dock_Nicaido_neutral_pv1

> <s_m_subgroupid>
glide-dock_Nicaido_neutral_pv1

> <b_m_subgroup_collapsed>
0

$$$$
BL-S217
                    3D
 Schrodinger Suite 2022-2.
 48 50  0  0  1  0            999 V2000
  -27.6169  -23.8921  -22.2180 O   0  0  0  0  0  0
  -28.6947  -23.5453  -21.7781 C   0  0  0  0  0  0
  -29.3914  -23.5884  -20.3979 C   0  0  2  0  0  0
  -30.5701  -22.8951  -21.0923 C   0  0  1  0  0  0
  -29.8681  -23.0715  -22.3553 N   0  0  0  0  0  0
  -30.4432  -22.7204  -23.6033 C   0  0  0  0  0  0
  -29.4443  -22.5010  -24.8135 C   0  0  0  0  0  0
  -29.8209  -21.8038  -25.7815 O   0  5  0  0  0  0
  -28.3771  -23.1495  -24.8096 O   0  0  0  0  0  0
  -31.7989  -22.6592  -23.7622 C   0  0  0  0  0  0
  -32.8006  -22.8334  -22.6240 C   0  0  0  0  0  0
  -32.1584  -23.7529  -21.2140 S   0  0  0  0  0  0
  -32.5059  -22.4069  -25.0982 C   0  0  0  0  0  0
  -32.2350  -23.4183  -26.0711 O   0  0  0  0  0  0
  -32.7047  -24.6728  -25.9223 C   0  0  0  0  0  0
  -32.2450  -25.6002  -27.0392 C   0  0  0  0  0  0
  -33.4116  -25.0814  -25.0034 O   0  0  0  0  0  0
  -28.7689  -22.7584  -19.3747 N   0  0  0  0  0  0
  -27.5666  -22.9854  -18.8318 C   0  0  0  0  0  0
  -27.0942  -21.9738  -17.7882 C   0  0  0  0  0  0
  -25.3540  -21.4708  -17.9585 S   0  0  0  0  0  0
  -25.2107  -20.2369  -19.2184 C   0  0  0  0  0  0
  -26.0946  -20.1766  -20.3167 C   0  0  0  0  0  0
  -25.8655  -19.2267  -21.3336 C   0  0  0  0  0  0
  -24.8120  -18.3719  -21.2573 N   0  3  0  0  0  0
  -24.5438  -17.4339  -22.3552 C   0  0  0  0  0  0
  -23.9710  -18.3824  -20.1940 C   0  0  0  0  0  0
  -24.1458  -19.3155  -19.1515 C   0  0  0  0  0  0
  -26.8581  -23.9412  -19.1589 O   0  0  0  0  0  0
  -29.6638  -24.5820  -20.0441 H   0  0  0  0  0  0
  -30.6931  -21.8397  -20.8356 H   0  0  0  0  0  0
  -33.1255  -21.8472  -22.2901 H   0  0  0  0  0  0
  -33.6875  -23.3622  -22.9727 H   0  0  0  0  0  0
  -33.5837  -22.3374  -24.9462 H   0  0  0  0  0  0
  -32.2043  -21.4351  -25.4890 H   0  0  0  0  0  0
  -32.7393  -26.5701  -26.9576 H   0  0  0  0  0  0
  -32.4818  -25.1729  -28.0131 H   0  0  0  0  0  0
  -31.1691  -25.7606  -26.9760 H   0  0  0  0  0  0
  -29.3551  -22.0192  -18.9893 H   0  0  0  0  0  0
  -27.2136  -22.4417  -16.8137 H   0  0  0  0  0  0
  -27.7228  -21.0822  -17.7891 H   0  0  0  0  0  0
  -26.9285  -20.8530  -20.4100 H   0  0  0  0  0  0
  -26.4934  -19.1470  -22.2097 H   0  0  0  0  0  0
  -25.1673  -17.6813  -23.2132 H   0  0  0  0  0  0
  -24.7688  -16.4250  -22.0141 H   0  0  0  0  0  0
  -23.4946  -17.5142  -22.6399 H   0  0  0  0  0  0
  -23.1657  -17.6605  -20.2125 H   0  0  0  0  0  0
  -23.4615  -19.3354  -18.3152 H   0  0  0  0  0  0
  1  2  2  0  0  0
  2  5  1  0  0  0
  2  3  1  0  0  0
  3  4  1  0  0  0
  3 18  1  0  0  0
  3 30  1  0  0  0
  4 12  1  0  0  0
  4  5  1  0  0  0
  4 31  1  0  0  0
  5  6  1  0  0  0
  6  7  1  0  0  0
  6 10  2  0  0  0
  7  8  1  0  0  0
  7  9  2  0  0  0
 10 11  1  0  0  0
 10 13  1  0  0  0
 11 12  1  0  0  0
 11 32  1  0  0  0
 11 33  1  0  0  0
 13 14  1  0  0  0
 13 34  1  0  0  0
 13 35  1  0  0  0
 14 15  1  0  0  0
 15 16  1  0  0  0
 15 17  2  0  0  0
 16 36  1  0  0  0
 16 37  1  0  0  0
 16 38  1  0  0  0
 18 19  1  0  0  0
 18 39  1  0  0  0
 19 20  1  0  0  0
 19 29  2  0  0  0
 20 21  1  0  0  0
 20 40  1  0  0  0
 20 41  1  0  0  0
 21 22  1  0  0  0
 22 28  1  0  0  0
 22 23  2  0  0  0
 23 24  1  0  0  0
 23 42  1  0  0  0
 24 25  2  0  0  0
 24 43  1  0  0  0
 25 26  1  0  0  0
 25 27  1  0  0  0
 26 44  1  0  0  0
 26 45  1  0  0  0
 26 46  1  0  0  0
 27 28  2  0  0  0
 27 47  1  0  0  0
 28 48  1  0  0  0
M  CHG  2   8  -1  25   1
M  END
> <s_m_entry_id>
27631

> <s_m_entry_name>
data_maestro.17

> <s_m_Source_Path>
C:\Users\olshana1\Git\GramNeg-Accumulation\Gram Negative Permeation - OmpF

> <s_m_Source_File>
data_maestro.csv

> <i_m_Source_File_Index>
17

> <s_m_job_name>
glide-dock_Nicaido_neutral

> <s_i_glide_gridfile>
3POX-grid

> <i_i_glide_lignum>
22

> <i_i_glide_rotatable_bonds>
9

> <r_i_docking_score>
-4.4082296317556

> <r_i_glide_ligand_efficiency>
-0.1520079183364

> <r_i_glide_ligand_efficiency_sa>
-0.467016484618208

> <r_i_glide_ligand_efficiency_ln>
-1.00937280261348

> <r_i_glide_gscore>
-4.4082296317556

> <r_i_glide_lipo>
-0.0378002607496218

> <r_i_glide_hbond>
-0.683125255083799

> <r_i_glide_metal>
0

> <r_i_glide_rewards>
-0.426187232602031

> <r_i_glide_evdw>
-27.5642642974854

> <r_i_glide_ecoul>
-13.8524646759033

> <r_i_glide_erotb>
0.729326637690335

> <r_i_glide_esite>
-0.534360604750718

> <r_i_glide_emodel>
-66.6756462224311

> <r_i_glide_energy>
-41.4167289733887

> <r_i_glide_einternal>
5.75388431549072

> <i_i_glide_confnum>
140

> <i_i_glide_posenum>
250

> <r_i_glide_eff_state_penalty>
0

> <r_glide_res:A132_vdw>
-2.49577454960381

> <r_glide_res:A132_coul>
-13.6786944830682

> <r_glide_res:A132_hbond>
0

> <r_glide_res:A132_dist>
1.87213652048281

> <r_glide_res:A132_Eint>
-16.174469032672

> <r_glide_res:A117_vdw>
-2.44750859715

> <r_glide_res:A117_coul>
-14.6755555767904

> <r_glide_res:A117_hbond>
0

> <r_glide_res:A117_dist>
2.37612672079993

> <r_glide_res:A117_Eint>
-17.1230641739404

> <r_glide_res:A113_vdw>
-2.97746242560044

> <r_glide_res:A113_coul>
-15.2733619839563

> <r_glide_res:A113_hbond>
-0.106638723053113

> <r_glide_res:A113_dist>
2.07089360125826

> <r_glide_res:A113_Eint>
-18.3574631326099

> <r_glide_res:A82_vdw>
-3.35216971354059

> <r_glide_res:A82_coul>
-25.6832395397563

> <r_glide_res:A82_hbond>
-0.16

> <r_glide_res:A82_dist>
2.02367551916032

> <r_glide_res:A82_Eint>
-29.1954092532969

> <r_glide_res:A42_vdw>
1.03651641317815

> <r_glide_res:A42_coul>
-31.6257782581755

> <r_glide_res:A42_hbond>
-0.401634089437606

> <r_glide_res:A42_dist>
1.94078051690331

> <r_glide_res:A42_Eint>
-30.990895934435

> <r_glide_res:A16_vdw>
-1.46519113868969

> <r_glide_res:A16_coul>
-21.3414238149031

> <r_glide_res:A16_hbond>
-0.0148524425930808

> <r_glide_res:A16_dist>
2.47029511481384

> <r_glide_res:A16_Eint>
-22.8214673961859

> <s_m_source_file>
ligprep_Nicaido_neutral.maegz

> <i_m_source_file_index>
17

> <i_lp_mmshare_version>
58128

> <i_f3d_flags>
0

> <s_lp_Force_Field>
S-OPLS

> <r_lp_Energy>
45.233938

> <b_lp_Chiralities_Consistent>
1

> <s_lp_Variant>
BL-S217-1

> <s_epik_input>
W0NIM11DKD1PKU9bQ0gyXUMoW0NIMl1TMSk9QyhDKD1PKVtPSF0pTihbQ0BASF0xMilDKD1PKVtDQEhdMltOSF1DKD1PKVtDSDJdU2MzW2NIXVtjSF1bbitdKFtDSDNdKVtjSF1bY0hdMw==

> <s_epik_cmdline>
J2VwaWtfcHl0aG9uJywgJy1waHQnLCAnMC4wJywgJy1waCcsICc3LjQnLCAnLW50JywgJy1tYScsICc1MDAnLCAnLWltYWUnLCAnPGluZmlsZS5tYWU+JywgJy1vbWFlJywgJzxvdXRmaWxlLm1hZT4n

> <r_lp_tautomer_probability>
1

> <r_epik_Ionization_Penalty>
  0.0000

> <r_epik_Ionization_Penalty_Charging>
  0.0000

> <r_epik_Ionization_Penalty_Neutral>
  0.0000

> <r_epik_State_Penalty>
  0.0000

> <r_epik_Charging_Adjusted_Penalty>
6.14912740637116e-06

> <i_epik_Tot_Q>
0

> <i_epik_Tot_abs_Q>
2

> <s_epik_Chemistry_Notes>
This compound has an ester and may undergo hydrolysis at high or low pH. This compound contains an acetal/aminal-like group ( X-CH(R)-Y where X, Y are N, S, or O) that may be acid/base labile, releasing an aldehyde.

> <s_m_subgroup_title>
glide-dock_Nicaido_neutral_pv1

> <s_m_subgroupid>
glide-dock_Nicaido_neutral_pv1

> <b_m_subgroup_collapsed>
0

$$$$
Ceftriaxone
                    3D
 Schrodinger Suite 2022-2.
 52 55  0  0  1  0            999 V2000
  -24.0971  -20.3002  -25.4766 C   0  0  0  0  0  0
  -24.9566  -21.2265  -24.7476 N   0  0  0  0  0  0
  -26.2134  -20.8108  -24.2235 C   0  0  0  0  0  0
  -26.7253  -19.1501  -24.8117 S   0  0  0  0  0  0
  -28.4442  -19.3370  -25.3565 C   0  0  0  0  0  0
  -29.4237  -19.7207  -24.2531 C   0  0  0  0  0  0
  -30.0064  -20.9473  -24.1545 C   0  0  0  0  0  0
  -30.7862  -21.3177  -23.0434 N   0  0  0  0  0  0
  -30.8549  -20.5347  -21.8190 C   0  0  2  0  0  0
  -31.9420  -21.5140  -21.3399 C   0  0  2  0  0  0
  -31.5651  -22.3658  -22.5782 C   0  0  0  0  0  0
  -31.8024  -23.4761  -23.0057 O   0  0  0  0  0  0
  -33.3019  -20.9561  -21.2756 N   0  0  0  0  0  0
  -34.1768  -20.6786  -22.2632 C   0  0  0  0  0  0
  -35.5649  -20.3128  -21.7529 C   0  0  0  0  0  0
  -36.2000  -21.3209  -20.8449 C   0  0  0  0  0  0
  -37.5588  -21.3111  -20.6062 C   0  0  0  0  0  0
  -38.0489  -22.5202  -19.4490 S   0  0  0  0  0  0
  -36.3795  -23.0433  -19.3640 C   0  0  0  0  0  0
  -35.9710  -24.0902  -18.5666 N   0  0  0  0  0  0
  -35.5576  -22.3504  -20.1417 N   0  0  0  0  0  0
  -36.2061  -19.2586  -22.0843 N   0  0  0  0  0  0
  -35.4733  -18.3696  -22.8854 O   0  0  0  0  0  0
  -36.2209  -17.1732  -22.9964 C   0  0  0  0  0  0
  -33.9258  -20.7237  -23.4686 O   0  0  0  0  0  0
  -31.1333  -18.7902  -22.2469 S   0  0  0  0  0  0
  -29.6253  -18.6054  -23.2271 C   0  0  0  0  0  0
  -29.7787  -22.0748  -25.2179 C   0  0  0  0  0  0
  -29.2801  -23.1497  -24.8128 O   0  5  0  0  0  0
  -30.0598  -21.8127  -26.4131 O   0  0  0  0  0  0
  -26.9278  -21.5099  -23.3897 N   0  0  0  0  0  0
  -26.4621  -22.7521  -22.9687 C   0  0  0  0  0  0
  -25.1383  -23.2945  -23.5938 C   0  0  0  0  0  0
  -24.7685  -24.4055  -23.2090 O   0  0  0  0  0  0
  -24.5039  -22.5589  -24.5393 N   0  5  0  0  0  0
  -27.0543  -23.4696  -22.1594 O   0  0  0  0  0  0
  -23.8875  -19.4082  -24.8844 H   0  0  0  0  0  0
  -23.1425  -20.7668  -25.7187 H   0  0  0  0  0  0
  -24.5591  -19.9947  -26.4147 H   0  0  0  0  0  0
  -28.4298  -20.0294  -26.1909 H   0  0  0  0  0  0
  -28.7610  -18.3840  -25.7803 H   0  0  0  0  0  0
  -29.9316  -20.6400  -21.2445 H   0  0  0  0  0  0
  -31.6531  -21.9980  -20.4135 H   0  0  0  0  0  0
  -33.6528  -20.8168  -20.3355 H   0  0  0  0  0  0
  -38.2989  -20.6384  -21.0135 H   0  0  0  0  0  0
  -34.9695  -24.2118  -18.4132 H   0  0  0  0  0  0
  -36.5687  -24.4062  -17.8195 H   0  0  0  0  0  0
  -35.6501  -16.4367  -23.5624 H   0  0  0  0  0  0
  -37.1654  -17.3436  -23.5151 H   0  0  0  0  0  0
  -36.4329  -16.7488  -22.0146 H   0  0  0  0  0  0
  -28.7694  -18.5970  -22.5524 H   0  0  0  0  0  0
  -29.6620  -17.6338  -23.7204 H   0  0  0  0  0  0
  1  2  1  0  0  0
  1 37  1  0  0  0
  1 38  1  0  0  0
  1 39  1  0  0  0
  2 35  1  0  0  0
  2  3  1  0  0  0
  3  4  1  0  0  0
  3 31  2  0  0  0
  4  5  1  0  0  0
  5  6  1  0  0  0
  5 40  1  0  0  0
  5 41  1  0  0  0
  6 27  1  0  0  0
  6  7  2  0  0  0
  7  8  1  0  0  0
  7 28  1  0  0  0
  8 11  1  0  0  0
  8  9  1  0  0  0
  9 10  1  0  0  0
  9 26  1  0  0  0
  9 42  1  0  0  0
 10 11  1  0  0  0
 10 13  1  0  0  0
 10 43  1  0  0  0
 11 12  2  0  0  0
 13 14  1  0  0  0
 13 44  1  0  0  0
 14 15  1  0  0  0
 14 25  2  0  0  0
 15 16  1  0  0  0
 15 22  2  3  0  0
 16 21  1  0  0  0
 16 17  2  0  0  0
 17 18  1  0  0  0
 17 45  1  0  0  0
 18 19  1  0  0  0
 19 20  1  0  0  0
 19 21  2  0  0  0
 20 46  1  0  0  0
 20 47  1  0  0  0
 22 23  1  0  0  0
 23 24  1  0  0  0
 24 48  1  0  0  0
 24 49  1  0  0  0
 24 50  1  0  0  0
 26 27  1  0  0  0
 27 51  1  0  0  0
 27 52  1  0  0  0
 28 29  1  0  0  0
 28 30  2  0  0  0
 31 32  1  0  0  0
 32 33  1  0  0  0
 32 36  2  0  0  0
 33 34  2  0  0  0
 33 35  1  0  0  0
M  CHG  2  29  -1  35  -1
M  END
> <s_m_entry_id>
27632

> <s_m_entry_name>
data_maestro.22

> <s_m_Source_Path>
C:\Users\olshana1\Git\GramNeg-Accumulation\Gram Negative Permeation - OmpF

> <s_m_Source_File>
data_maestro.csv

> <i_m_Source_File_Index>
22

> <s_m_job_name>
glide-dock_Nicaido_neutral

> <s_i_glide_gridfile>
3POX-grid

> <i_i_glide_lignum>
29

> <i_i_glide_rotatable_bonds>
9

> <r_i_docking_score>
-4.40217404365585

> <r_i_glide_ligand_efficiency>
-0.122282612323774

> <r_i_glide_ligand_efficiency_sa>
-0.403768289215582

> <r_i_glide_ligand_efficiency_ln>
-0.960435443327448

> <r_i_glide_gscore>
-4.40217404365585

> <r_i_glide_lipo>
-0.0644177402091636

> <r_i_glide_hbond>
-1.12761960636748

> <r_i_glide_metal>
0

> <r_i_glide_rewards>
0.00358456417786935

> <r_i_glide_evdw>
-34.8844299316406

> <r_i_glide_ecoul>
-9.54692840576172

> <r_i_glide_erotb>
0.472124986767549

> <r_i_glide_esite>
-0.509585490578334

> <r_i_glide_emodel>
-70.2803765524972

> <r_i_glide_energy>
-44.4313583374023

> <r_i_glide_einternal>
11.0156202316284

> <i_i_glide_confnum>
113

> <i_i_glide_posenum>
92

> <r_i_glide_eff_state_penalty>
0

> <r_glide_res:A132_vdw>
-1.63376016387463

> <r_glide_res:A132_coul>
-52.9526378944264

> <r_glide_res:A132_hbond>
0

> <r_glide_res:A132_dist>
2.80197113903256

> <r_glide_res:A132_Eint>
-54.5863980583011

> <r_glide_res:A117_vdw>
-3.33081966606546

> <r_glide_res:A117_coul>
48.8571207627705

> <r_glide_res:A117_hbond>
0

> <r_glide_res:A117_dist>
2.35201973121237

> <r_glide_res:A117_Eint>
45.5263010967051

> <r_glide_res:A113_vdw>
-5.96285346645819

> <r_glide_res:A113_coul>
31.5005822989331

> <r_glide_res:A113_hbond>
-0.242717738089727

> <r_glide_res:A113_dist>
2.16919216681433

> <r_glide_res:A113_Eint>
25.2950110943852

> <r_glide_res:A82_vdw>
-2.47338794224787

> <r_glide_res:A82_coul>
-71.4685366131829

> <r_glide_res:A82_hbond>
-0.064536765469552

> <r_glide_res:A82_dist>
2.33202586244126

> <r_glide_res:A82_Eint>
-74.0064613209004

> <r_glide_res:A42_vdw>
-1.19627262178767

> <r_glide_res:A42_coul>
-85.9322061825228

> <r_glide_res:A42_hbond>
-0.312999855240925

> <r_glide_res:A42_dist>
1.85027925766836

> <r_glide_res:A42_Eint>
-87.4414786595514

> <r_glide_res:A16_vdw>
0.0156025753753316

> <r_glide_res:A16_coul>
-69.9803675683195

> <r_glide_res:A16_hbond>
-0.2

> <r_glide_res:A16_dist>
1.84151980701637

> <r_glide_res:A16_Eint>
-70.1647649929442

> <s_m_source_file>
ligprep_Nicaido_neutral.maegz

> <i_m_source_file_index>
22

> <i_lp_mmshare_version>
58128

> <i_f3d_flags>
0

> <s_lp_Force_Field>
S-OPLS

> <r_lp_Energy>
111.196812

> <b_lp_Chiralities_Consistent>
1

> <s_lp_Variant>
Ceftriaxone-2

> <s_epik_input>
W09IXWMobjEpYyg9TyluYyhuMVtDSDNdKVNbQ0gyXUMoPUMyQyg9TylbT0hdKVtDSDJdU1tDQEhdKE4yMylbQ0BIXShDMz1PKVtOSF1DKD1PKS9DKD1OL09bQ0gzXSljNFtjSF1zYyhuNClbTkgyXQ==

> <s_epik_cmdline>
J2VwaWtfcHl0aG9uJywgJy1waHQnLCAnMC4wJywgJy1waCcsICc3LjQnLCAnLW50JywgJy1tYScsICc1MDAnLCAnLWltYWUnLCAnPGluZmlsZS5tYWU+JywgJy1vbWFlJywgJzxvdXRmaWxlLm1hZT4n

> <r_lp_tautomer_probability>
1

> <r_epik_Ionization_Penalty>
  0.0014

> <r_epik_Ionization_Penalty_Charging>
  0.0010

> <r_epik_Ionization_Penalty_Neutral>
  0.0004

> <r_epik_State_Penalty>
  0.0000

> <r_epik_Charging_Adjusted_Penalty>
0.000994184415634904

> <i_epik_Tot_Q>
-2

> <i_epik_Tot_abs_Q>
2

> <s_epik_Chemistry_Notes>
This compound has an imine and may undergo hydrolysis. This compound contains an acetal/aminal-like group ( X-CH(R)-Y where X, Y are N, S, or O) that may be acid/base labile, releasing an aldehyde.

> <s_m_subgroup_title>
glide-dock_Nicaido_neutral_pv1

> <s_m_subgroupid>
glide-dock_Nicaido_neutral_pv1

> <b_m_subgroup_collapsed>
0

$$$$
Ceftriaxone
                    3D
 Schrodinger Suite 2022-2.
 52 55  0  0  1  0            999 V2000
  -23.2555  -21.5533  -25.1894 C   0  0  0  0  0  0
  -23.5832  -22.8143  -24.5362 N   0  0  0  0  0  0
  -23.7030  -22.9006  -23.1206 C   0  0  0  0  0  0
  -23.9183  -21.2751  -22.3004 S   0  0  0  0  0  0
  -24.8301  -21.7145  -20.7800 C   0  0  0  0  0  0
  -26.2937  -21.2871  -20.8491 C   0  0  0  0  0  0
  -27.2880  -22.0573  -21.3682 C   0  0  0  0  0  0
  -28.6279  -21.6477  -21.4505 N   0  0  0  0  0  0
  -29.1584  -20.5817  -20.6345 C   0  0  2  0  0  0
  -30.4740  -20.7281  -21.4363 C   0  0  2  0  0  0
  -29.8629  -22.0645  -21.9243 C   0  0  0  0  0  0
  -30.2351  -23.0814  -22.4731 O   0  0  0  0  0  0
  -30.5655  -19.7200  -22.4921 N   0  0  0  0  0  0
  -31.5827  -19.5449  -23.3489 C   0  0  0  0  0  0
  -31.2870  -18.5112  -24.4346 C   0  0  0  0  0  0
  -32.4559  -17.6564  -24.8106 C   0  0  0  0  0  0
  -32.5105  -17.0459  -26.0468 C   0  0  0  0  0  0
  -33.9131  -16.0282  -26.2350 S   0  0  0  0  0  0
  -34.3908  -16.4673  -24.6063 C   0  0  0  0  0  0
  -35.5155  -15.9262  -24.0133 N   0  0  0  0  0  0
  -33.5663  -17.3292  -24.0135 N   0  0  0  0  0  0
  -30.1703  -18.3486  -25.0446 N   0  0  0  0  0  0
  -29.1951  -19.3240  -24.7754 O   0  0  0  0  0  0
  -27.9275  -18.7802  -25.0992 C   0  0  0  0  0  0
  -32.6442  -20.1671  -23.2938 O   0  0  0  0  0  0
  -28.0756  -19.1496  -20.8133 S   0  0  0  0  0  0
  -26.5294  -19.8979  -20.2722 C   0  0  0  0  0  0
  -27.0206  -23.4435  -21.9761 C   0  0  0  0  0  0
  -27.1689  -23.5495  -23.2134 O   0  5  0  0  0  0
  -26.7690  -24.3495  -21.1515 O   0  0  0  0  0  0
  -23.6946  -24.0207  -22.4551 N   0  0  0  0  0  0
  -23.7078  -25.2143  -23.1626 C   0  0  0  0  0  0
  -23.9689  -25.1501  -24.6926 C   0  0  0  0  0  0
  -24.3558  -26.1966  -25.2134 O   0  0  0  0  0  0
  -23.8031  -23.9716  -25.3370 N   0  5  0  0  0  0
  -23.5673  -26.3234  -22.6467 O   0  0  0  0  0  0
  -22.3873  -21.0833  -24.7261 H   0  0  0  0  0  0
  -23.0193  -21.7153  -26.2417 H   0  0  0  0  0  0
  -24.0975  -20.8618  -25.1416 H   0  0  0  0  0  0
  -24.3548  -21.1986  -19.9454 H   0  0  0  0  0  0
  -24.7432  -22.7698  -20.5326 H   0  0  0  0  0  0
  -29.1689  -20.9329  -19.6024 H   0  0  0  0  0  0
  -31.3633  -20.8130  -20.8133 H   0  0  0  0  0  0
  -29.7294  -19.1701  -22.6467 H   0  0  0  0  0  0
  -31.7824  -17.0964  -26.8428 H   0  0  0  0  0  0
  -35.5465  -15.9227  -23.0008 H   0  0  0  0  0  0
  -35.9217  -15.1063  -24.4386 H   0  0  0  0  0  0
  -27.1562  -19.5389  -24.9669 H   0  0  0  0  0  0
  -27.8849  -18.4290  -26.1311 H   0  0  0  0  0  0
  -27.6812  -17.9496  -24.4398 H   0  0  0  0  0  0
  -26.5256  -19.9590  -19.1835 H   0  0  0  0  0  0
  -25.7201  -19.2283  -20.5648 H   0  0  0  0  0  0
  1  2  1  0  0  0
  1 37  1  0  0  0
  1 38  1  0  0  0
  1 39  1  0  0  0
  2 35  1  0  0  0
  2  3  1  0  0  0
  3  4  1  0  0  0
  3 31  2  0  0  0
  4  5  1  0  0  0
  5  6  1  0  0  0
  5 40  1  0  0  0
  5 41  1  0  0  0
  6 27  1  0  0  0
  6  7  2  0  0  0
  7  8  1  0  0  0
  7 28  1  0  0  0
  8 11  1  0  0  0
  8  9  1  0  0  0
  9 10  1  0  0  0
  9 26  1  0  0  0
  9 42  1  0  0  0
 10 11  1  0  0  0
 10 13  1  0  0  0
 10 43  1  0  0  0
 11 12  2  0  0  0
 13 14  1  0  0  0
 13 44  1  0  0  0
 14 15  1  0  0  0
 14 25  2  0  0  0
 15 16  1  0  0  0
 15 22  2  3  0  0
 16 21  1  0  0  0
 16 17  2  0  0  0
 17 18  1  0  0  0
 17 45  1  0  0  0
 18 19  1  0  0  0
 19 20  1  0  0  0
 19 21  2  0  0  0
 20 46  1  0  0  0
 20 47  1  0  0  0
 22 23  1  0  0  0
 23 24  1  0  0  0
 24 48  1  0  0  0
 24 49  1  0  0  0
 24 50  1  0  0  0
 26 27  1  0  0  0
 27 51  1  0  0  0
 27 52  1  0  0  0
 28 29  1  0  0  0
 28 30  2  0  0  0
 31 32  1  0  0  0
 32 33  1  0  0  0
 32 36  2  0  0  0
 33 34  2  0  0  0
 33 35  1  0  0  0
M  CHG  2  29  -1  35  -1
M  END
> <s_m_entry_id>
27633

> <s_m_entry_name>
data_maestro.22

> <s_m_Source_Path>
C:\Users\olshana1\Git\GramNeg-Accumulation\Gram Negative Permeation - OmpF

> <s_m_Source_File>
data_maestro.csv

> <i_m_Source_File_Index>
22

> <s_m_job_name>
glide-dock_Nicaido_neutral

> <s_i_glide_gridfile>
3POX-grid

> <i_i_glide_lignum>
29

> <i_i_glide_rotatable_bonds>
9

> <r_i_docking_score>
-4.39080153015541

> <r_i_glide_ligand_efficiency>
-0.121966709170984

> <r_i_glide_ligand_efficiency_sa>
-0.402725199988619

> <r_i_glide_ligand_efficiency_ln>
-0.95795426813146

> <r_i_glide_gscore>
-4.39080153015541

> <r_i_glide_lipo>
-0.0354735102221247

> <r_i_glide_hbond>
-0.902403014943431

> <r_i_glide_metal>
0

> <r_i_glide_rewards>
0.0466775601037774

> <r_i_glide_evdw>
-36.3265075683594

> <r_i_glide_ecoul>
-10.4173574447632

> <r_i_glide_erotb>
0.472124986767549

> <r_i_glide_esite>
-0.592798556728732

> <r_i_glide_emodel>
-74.0765189669209

> <r_i_glide_energy>
-46.7438650131226

> <r_i_glide_einternal>
7.64003658294678

> <i_i_glide_confnum>
229

> <i_i_glide_posenum>
399

> <r_i_glide_eff_state_penalty>
0

> <r_glide_res:A132_vdw>
7.0346123748621

> <r_glide_res:A132_coul>
-78.4332358790483

> <r_glide_res:A132_hbond>
-0.307662783023293

> <r_glide_res:A132_dist>
1.61568464681691

> <r_glide_res:A132_Eint>
-71.7062862872095

> <r_glide_res:A117_vdw>
-4.41556501705131

> <r_glide_res:A117_coul>
39.7431101771414

> <r_glide_res:A117_hbond>
0

> <r_glide_res:A117_dist>
2.19706063502238

> <r_glide_res:A117_Eint>
35.3275451600901

> <r_glide_res:A113_vdw>
-0.431766376919124

> <r_glide_res:A113_coul>
33.7130173127366

> <r_glide_res:A113_hbond>
0

> <r_glide_res:A113_dist>
2.22645002360731

> <r_glide_res:A113_Eint>
33.2812509358174

> <r_glide_res:A82_vdw>
-0.248384890046895

> <r_glide_res:A82_coul>
-87.2095110069724

> <r_glide_res:A82_hbond>
-0.36

> <r_glide_res:A82_dist>
1.76578464404648

> <r_glide_res:A82_Eint>
-87.8178958970193

> <r_glide_res:A42_vdw>
-1.96659299914376

> <r_glide_res:A42_coul>
-75.5663668398659

> <r_glide_res:A42_hbond>
-0.00963460287314771

> <r_glide_res:A42_dist>
2.45637713098783

> <r_glide_res:A42_Eint>
-77.5425944418828

> <r_glide_res:A16_vdw>
-0.63853478455599

> <r_glide_res:A16_coul>
-41.7482745722509

> <r_glide_res:A16_hbond>
0

> <r_glide_res:A16_dist>
3.97006892966696

> <r_glide_res:A16_Eint>
-42.3868093568069

> <s_m_source_file>
ligprep_Nicaido_neutral.maegz

> <i_m_source_file_index>
22

> <i_lp_mmshare_version>
58128

> <i_f3d_flags>
0

> <s_lp_Force_Field>
S-OPLS

> <r_lp_Energy>
111.196812

> <b_lp_Chiralities_Consistent>
1

> <s_lp_Variant>
Ceftriaxone-2

> <s_epik_input>
W09IXWMobjEpYyg9TyluYyhuMVtDSDNdKVNbQ0gyXUMoPUMyQyg9TylbT0hdKVtDSDJdU1tDQEhdKE4yMylbQ0BIXShDMz1PKVtOSF1DKD1PKS9DKD1OL09bQ0gzXSljNFtjSF1zYyhuNClbTkgyXQ==

> <s_epik_cmdline>
J2VwaWtfcHl0aG9uJywgJy1waHQnLCAnMC4wJywgJy1waCcsICc3LjQnLCAnLW50JywgJy1tYScsICc1MDAnLCAnLWltYWUnLCAnPGluZmlsZS5tYWU+JywgJy1vbWFlJywgJzxvdXRmaWxlLm1hZT4n

> <r_lp_tautomer_probability>
1

> <r_epik_Ionization_Penalty>
  0.0014

> <r_epik_Ionization_Penalty_Charging>
  0.0010

> <r_epik_Ionization_Penalty_Neutral>
  0.0004

> <r_epik_State_Penalty>
  0.0000

> <r_epik_Charging_Adjusted_Penalty>
0.000994184415634904

> <i_epik_Tot_Q>
-2

> <i_epik_Tot_abs_Q>
2

> <s_epik_Chemistry_Notes>
This compound has an imine and may undergo hydrolysis. This compound contains an acetal/aminal-like group ( X-CH(R)-Y where X, Y are N, S, or O) that may be acid/base labile, releasing an aldehyde.

> <s_m_subgroup_title>
glide-dock_Nicaido_neutral_pv1

> <s_m_subgroupid>
glide-dock_Nicaido_neutral_pv1

> <b_m_subgroup_collapsed>
0

$$$$
Cefaclor
                    3D
 Schrodinger Suite 2022-2.
 37 39  0  0  1  0            999 V2000
  -26.9612  -22.2280  -24.4128 O   0  0  0  0  0  0
  -25.9747  -21.5346  -24.2667 C   0  0  0  0  0  0
  -25.6366  -20.0723  -23.8583 C   0  0  2  0  0  0
  -24.1773  -20.5654  -23.7648 C   0  0  1  0  0  0
  -24.6202  -21.7870  -24.4264 N   0  0  0  0  0  0
  -23.6867  -22.8295  -24.5592 C   0  0  0  0  0  0
  -24.0044  -24.2330  -23.8916 C   0  0  0  0  0  0
  -25.0670  -24.3397  -23.2380 O   0  5  0  0  0  0
  -23.1692  -25.1500  -24.0479 O   0  0  0  0  0  0
  -22.5430  -22.5054  -25.2111 C   0  0  0  0  0  0
  -22.3213  -21.1365  -25.8369 C   0  0  0  0  0  0
  -22.7934  -19.7916  -24.7047 S   0  0  0  0  0  0
  -21.1924  -23.5501  -25.5054 Cl  0  0  0  0  0  0
  -26.1781  -19.6072  -22.5670 N   0  0  0  0  0  0
  -26.2883  -20.2985  -21.4126 C   0  0  0  0  0  0
  -26.8161  -19.5393  -20.1844 C   0  0  2  0  0  0
  -25.5691  -19.2367  -19.4023 C   0  0  0  0  0  0
  -25.1696  -19.9955  -18.2726 C   0  0  0  0  0  0
  -24.0176  -19.6678  -17.5323 C   0  0  0  0  0  0
  -23.2311  -18.5650  -17.9060 C   0  0  0  0  0  0
  -23.5954  -17.8042  -19.0297 C   0  0  0  0  0  0
  -24.7472  -18.1432  -19.7655 C   0  0  0  0  0  0
  -27.7986  -20.3499  -19.4560 N   0  0  0  0  0  0
  -25.9859  -21.4890  -21.3017 O   0  0  0  0  0  0
  -25.7658  -19.3418  -24.6590 H   0  0  0  0  0  0
  -23.8517  -20.7853  -22.7457 H   0  0  0  0  0  0
  -21.2839  -20.9993  -26.1431 H   0  0  0  0  0  0
  -22.9337  -21.0664  -26.7368 H   0  0  0  0  0  0
  -26.4761  -18.6366  -22.5455 H   0  0  0  0  0  0
  -27.3039  -18.6156  -20.5028 H   0  0  0  0  0  0
  -25.7652  -20.8377  -17.9513 H   0  0  0  0  0  0
  -23.7474  -20.2572  -16.6686 H   0  0  0  0  0  0
  -22.3547  -18.3021  -17.3327 H   0  0  0  0  0  0
  -22.9934  -16.9575  -19.3243 H   0  0  0  0  0  0
  -25.0111  -17.5496  -20.6276 H   0  0  0  0  0  0
  -28.6422  -19.8309  -19.2308 H   0  0  0  0  0  0
  -28.1025  -21.1395  -20.0057 H   0  0  0  0  0  0
  1  2  2  0  0  0
  2  5  1  0  0  0
  2  3  1  0  0  0
  3  4  1  0  0  0
  3 14  1  0  0  0
  3 25  1  0  0  0
  4 12  1  0  0  0
  4  5  1  0  0  0
  4 26  1  0  0  0
  5  6  1  0  0  0
  6  7  1  0  0  0
  6 10  2  0  0  0
  7  8  1  0  0  0
  7  9  2  0  0  0
 10 11  1  0  0  0
 10 13  1  0  0  0
 11 12  1  0  0  0
 11 27  1  0  0  0
 11 28  1  0  0  0
 14 15  1  0  0  0
 14 29  1  0  0  0
 15 16  1  0  0  0
 15 24  2  0  0  0
 16 17  1  0  0  0
 16 23  1  0  0  0
 16 30  1  0  0  0
 17 22  1  0  0  0
 17 18  2  0  0  0
 18 19  1  0  0  0
 18 31  1  0  0  0
 19 20  2  0  0  0
 19 32  1  0  0  0
 20 21  1  0  0  0
 20 33  1  0  0  0
 21 22  2  0  0  0
 21 34  1  0  0  0
 22 35  1  0  0  0
 23 36  1  0  0  0
 23 37  1  0  0  0
M  CHG  1   8  -1
M  END
> <s_m_entry_id>
27634

> <s_m_entry_name>
data_maestro.15

> <s_m_Source_Path>
C:\Users\olshana1\Git\GramNeg-Accumulation\Gram Negative Permeation - OmpF

> <s_m_Source_File>
data_maestro.csv

> <i_m_Source_File_Index>
15

> <s_m_job_name>
glide-dock_Nicaido_neutral

> <s_i_glide_gridfile>
3POX-grid

> <i_i_glide_lignum>
20

> <i_i_glide_rotatable_bonds>
5

> <r_i_docking_score>
-4.38946041951156

> <r_i_glide_ligand_efficiency>
-0.182894184146315

> <r_i_glide_ligand_efficiency_sa>
-0.527558116434624

> <r_i_glide_ligand_efficiency_ln>
-1.05059929760312

> <r_i_glide_gscore>
-4.50586041951156

> <r_i_glide_lipo>
-0.129202226261551

> <r_i_glide_hbond>
-0.736311337864048

> <r_i_glide_metal>
0

> <r_i_glide_rewards>
-0.908121338138621

> <r_i_glide_evdw>
-26.3265037536621

> <r_i_glide_ecoul>
-10.1406764984131

> <r_i_glide_erotb>
0.429266414571003

> <r_i_glide_esite>
-0.324065269373273

> <r_i_glide_emodel>
-54.7300585243337

> <r_i_glide_energy>
-36.4671802520752

> <r_i_glide_einternal>
5.60176134109497

> <i_i_glide_confnum>
17

> <i_i_glide_posenum>
104

> <r_i_glide_eff_state_penalty>
0.1164

> <r_glide_res:A132_vdw>
-1.00965577811538

> <r_glide_res:A132_coul>
-37.3835566726891

> <r_glide_res:A132_hbond>
0

> <r_glide_res:A132_dist>
2.84913128240825

> <r_glide_res:A132_Eint>
-38.3932124508045

> <r_glide_res:A117_vdw>
-3.8396108103325

> <r_glide_res:A117_coul>
11.6552648864255

> <r_glide_res:A117_hbond>
-0.32

> <r_glide_res:A117_dist>
2.04478767857476

> <r_glide_res:A117_Eint>
7.49565407609304

> <r_glide_res:A113_vdw>
-1.01729989936495

> <r_glide_res:A113_coul>
15.3072878557808

> <r_glide_res:A113_hbond>
-0.0702416457154867

> <r_glide_res:A113_dist>
2.31741592143818

> <r_glide_res:A113_Eint>
14.2197463107004

> <r_glide_res:A82_vdw>
-0.627069891723264

> <r_glide_res:A82_coul>
-42.4867281067505

> <r_glide_res:A82_hbond>
-0.0129173934498616

> <r_glide_res:A82_dist>
2.35050983511244

> <r_glide_res:A82_Eint>
-43.1267153919236

> <r_glide_res:A42_vdw>
-0.952510937662254

> <r_glide_res:A42_coul>
-35.2734547588257

> <r_glide_res:A42_hbond>
-0.16

> <r_glide_res:A42_dist>
1.90953548376167

> <r_glide_res:A42_Eint>
-36.385965696488

> <r_glide_res:A16_vdw>
-0.15171172099303

> <r_glide_res:A16_coul>
-17.5078962859674

> <r_glide_res:A16_hbond>
0

> <r_glide_res:A16_dist>
5.09679408305975

> <r_glide_res:A16_Eint>
-17.6596080069605

> <s_m_source_file>
ligprep_Nicaido_neutral.maegz

> <i_m_source_file_index>
15

> <i_lp_mmshare_version>
58128

> <i_f3d_flags>
0

> <s_lp_Force_Field>
S-OPLS

> <r_lp_Energy>
48.098991

> <b_lp_Chiralities_Consistent>
1

> <s_lp_Variant>
Cefaclor-1

> <s_epik_input>
UzFbQ0gyXUMoQ2wpPUMoQyg9TylbT0hdKU4oW0NAQEhdMTIpQyg9TylbQ0BIXTJbTkhdQyg9TylbQ0BASF0oW05IMl0pYzNbY0hdW2NIXVtjSF1bY0hdW2NIXTM=

> <s_epik_cmdline>
J2VwaWtfcHl0aG9uJywgJy1waHQnLCAnMC4wJywgJy1waCcsICc3LjQnLCAnLW50JywgJy1tYScsICc1MDAnLCAnLWltYWUnLCAnPGluZmlsZS5tYWU+JywgJy1vbWFlJywgJzxvdXRmaWxlLm1hZT4n

> <r_epik_Ionization_Penalty>
  0.1164

> <r_epik_Ionization_Penalty_Charging>
  0.0000

> <r_epik_Ionization_Penalty_Neutral>
  0.1164

> <r_epik_State_Penalty>
  0.1164

> <r_epik_Charging_Adjusted_Penalty>
0.116403072965043

> <i_epik_Tot_Q>
-1

> <i_epik_Tot_abs_Q>
1

> <s_epik_Chemistry_Notes>
This compound contains an acetal/aminal-like group ( X-CH(R)-Y where X, Y are N, S, or O) that may be acid/base labile, releasing an aldehyde.

> <s_m_subgroup_title>
glide-dock_Nicaido_neutral_pv1

> <s_m_subgroupid>
glide-dock_Nicaido_neutral_pv1

> <b_m_subgroup_collapsed>
0

$$$$
Cefotaxime
                    3D
 Schrodinger Suite 2022-2.
 46 48  0  0  1  0            999 V2000
  -20.6438  -21.3007  -26.5039 C   0  0  0  0  0  0
  -21.0332  -22.2561  -25.3839 C   0  0  0  0  0  0
  -20.8982  -21.6925  -24.1752 O   0  0  0  0  0  0
  -21.3364  -22.3863  -23.0188 C   0  0  0  0  0  0
  -22.8128  -22.1135  -22.7461 C   0  0  0  0  0  0
  -23.8111  -23.0395  -22.8340 C   0  0  0  0  0  0
  -25.1545  -22.6701  -22.6079 N   0  0  0  0  0  0
  -25.6490  -21.3124  -22.7445 C   0  0  1  0  0  0
  -27.0346  -21.8220  -22.2977 C   0  0  2  0  0  0
  -26.3757  -23.2183  -22.2693 C   0  0  0  0  0  0
  -26.7307  -24.3470  -22.0142 O   0  0  0  0  0  0
  -28.0626  -21.6333  -23.3300 N   0  0  0  0  0  0
  -29.1019  -22.4518  -23.6089 C   0  0  0  0  0  0
  -30.0658  -21.9034  -24.6636 C   0  0  0  0  0  0
  -30.0774  -20.4386  -24.8093 C   0  0  0  0  0  0
  -30.3746  -19.6098  -23.7543 C   0  0  0  0  0  0
  -30.3727  -17.9467  -24.2361 S   0  0  0  0  0  0
  -29.9934  -18.4516  -25.8738 C   0  0  0  0  0  0
  -29.8468  -17.5458  -26.9025 N   0  0  0  0  0  0
  -29.8574  -19.7677  -26.0149 N   0  0  0  0  0  0
  -30.8385  -22.5687  -25.4323 N   0  0  0  0  0  0
  -30.7689  -23.9532  -25.2752 O   0  0  0  0  0  0
  -31.8861  -24.5208  -25.9380 C   0  0  0  0  0  0
  -29.2726  -23.5513  -23.0784 O   0  0  0  0  0  0
  -24.6490  -20.2548  -21.6681 S   0  0  0  0  0  0
  -23.0403  -20.6397  -22.3980 C   0  0  0  0  0  0
  -23.5681  -24.5447  -23.2785 C   0  0  0  0  0  0
  -22.5777  -25.1493  -22.8107 O   0  5  0  0  0  0
  -24.3684  -25.0245  -24.1123 O   0  0  0  0  0  0
  -21.4190  -23.4053  -25.6049 O   0  0  0  0  0  0
  -19.5723  -21.3616  -26.6964 H   0  0  0  0  0  0
  -21.1791  -21.5486  -27.4216 H   0  0  0  0  0  0
  -20.8907  -20.2742  -26.2314 H   0  0  0  0  0  0
  -20.7614  -22.0193  -22.1669 H   0  0  0  0  0  0
  -21.0818  -23.4402  -23.1016 H   0  0  0  0  0  0
  -25.6035  -20.9806  -23.7848 H   0  0  0  0  0  0
  -27.3238  -21.4381  -21.3177 H   0  0  0  0  0  0
  -28.0273  -20.7441  -23.8099 H   0  0  0  0  0  0
  -30.6009  -19.8647  -22.7267 H   0  0  0  0  0  0
  -29.1801  -17.7526  -27.6313 H   0  0  0  0  0  0
  -29.8477  -16.5657  -26.6329 H   0  0  0  0  0  0
  -31.8635  -25.6057  -25.8389 H   0  0  0  0  0  0
  -32.8229  -24.1685  -25.5027 H   0  0  0  0  0  0
  -31.8859  -24.2836  -27.0031 H   0  0  0  0  0  0
  -22.2726  -20.2995  -21.7026 H   0  0  0  0  0  0
  -22.9240  -20.0484  -23.3064 H   0  0  0  0  0  0
  1  2  1  0  0  0
  1 31  1  0  0  0
  1 32  1  0  0  0
  1 33  1  0  0  0
  2  3  1  0  0  0
  2 30  2  0  0  0
  3  4  1  0  0  0
  4  5  1  0  0  0
  4 34  1  0  0  0
  4 35  1  0  0  0
  5 26  1  0  0  0
  5  6  2  0  0  0
  6  7  1  0  0  0
  6 27  1  0  0  0
  7 10  1  0  0  0
  7  8  1  0  0  0
  8  9  1  0  0  0
  8 25  1  0  0  0
  8 36  1  0  0  0
  9 10  1  0  0  0
  9 12  1  0  0  0
  9 37  1  0  0  0
 10 11  2  0  0  0
 12 13  1  0  0  0
 12 38  1  0  0  0
 13 14  1  0  0  0
 13 24  2  0  0  0
 14 15  1  0  0  0
 14 21  2  3  0  0
 15 20  1  0  0  0
 15 16  2  0  0  0
 16 17  1  0  0  0
 16 39  1  0  0  0
 17 18  1  0  0  0
 18 19  1  0  0  0
 18 20  2  0  0  0
 19 40  1  0  0  0
 19 41  1  0  0  0
 21 22  1  0  0  0
 22 23  1  0  0  0
 23 42  1  0  0  0
 23 43  1  0  0  0
 23 44  1  0  0  0
 25 26  1  0  0  0
 26 45  1  0  0  0
 26 46  1  0  0  0
 27 28  1  0  0  0
 27 29  2  0  0  0
M  CHG  1  28  -1
M  END
> <s_m_entry_id>
27635

> <s_m_entry_name>
data_maestro.6

> <s_m_Source_Path>
C:\Users\olshana1\Git\GramNeg-Accumulation\Gram Negative Permeation - OmpF

> <s_m_Source_File>
data_maestro.csv

> <i_m_Source_File_Index>
6

> <s_m_job_name>
glide-dock_Nicaido_neutral

> <s_i_glide_gridfile>
3POX-grid

> <i_i_glide_lignum>
8

> <i_i_glide_rotatable_bonds>
9

> <r_i_docking_score>
-4.38552844328735

> <r_i_glide_ligand_efficiency>
-0.146184281442912

> <r_i_glide_ligand_efficiency_sa>
-0.454228550643949

> <r_i_glide_ligand_efficiency_ln>
-0.996439846474487

> <r_i_glide_gscore>
-4.38552844328735

> <r_i_glide_lipo>
-0.116770906031605

> <r_i_glide_hbond>
-0.927959262188848

> <r_i_glide_metal>
0

> <r_i_glide_rewards>
-0.299644139527988

> <r_i_glide_evdw>
-25.3420944213867

> <r_i_glide_ecoul>
-11.4208307266235

> <r_i_glide_erotb>
0.680611118548691

> <r_i_glide_esite>
-0.741535924024736

> <r_i_glide_emodel>
-56.2388874043157

> <r_i_glide_energy>
-36.7629251480103

> <r_i_glide_einternal>
6.62890386581421

> <i_i_glide_confnum>
92

> <i_i_glide_posenum>
332

> <r_i_glide_eff_state_penalty>
0

> <r_glide_res:A132_vdw>
1.22826625043833

> <r_glide_res:A132_coul>
-42.1534983929357

> <r_glide_res:A132_hbond>
-0.0787885515777701

> <r_glide_res:A132_dist>
1.92793245033872

> <r_glide_res:A132_Eint>
-41.0040206940751

> <r_glide_res:A117_vdw>
-4.17097195929014

> <r_glide_res:A117_coul>
12.1278374745437

> <r_glide_res:A117_hbond>
0

> <r_glide_res:A117_dist>
2.6439036123471

> <r_glide_res:A117_Eint>
7.9568655152536

> <r_glide_res:A113_vdw>
-0.799400798777175

> <r_glide_res:A113_coul>
15.1808127254569

> <r_glide_res:A113_hbond>
0

> <r_glide_res:A113_dist>
4.07982009131373

> <r_glide_res:A113_Eint>
14.3814119266797

> <r_glide_res:A82_vdw>
-1.95911552290007

> <r_glide_res:A82_coul>
-51.8013626795667

> <r_glide_res:A82_hbond>
-0.332290230962765

> <r_glide_res:A82_dist>
1.92595321130114

> <r_glide_res:A82_Eint>
-54.0927684334296

> <r_glide_res:A42_vdw>
-2.90351034154645

> <r_glide_res:A42_coul>
-33.9820869765385

> <r_glide_res:A42_hbond>
0

> <r_glide_res:A42_dist>
2.17807107989479

> <r_glide_res:A42_Eint>
-36.8855973180849

> <r_glide_res:A16_vdw>
-1.63336432862375

> <r_glide_res:A16_coul>
-22.3735398915993

> <r_glide_res:A16_hbond>
0

> <r_glide_res:A16_dist>
2.56119406217735

> <r_glide_res:A16_Eint>
-24.006904220223

> <s_m_source_file>
ligprep_Nicaido_neutral.maegz

> <i_m_source_file_index>
6

> <i_lp_mmshare_version>
58128

> <i_f3d_flags>
0

> <s_lp_Force_Field>
S-OPLS

> <r_lp_Energy>
51.702138

> <b_lp_Chiralities_Consistent>
1

> <s_lp_Variant>
Cefotaxime-2

> <s_epik_input>
W0NIM11DKD1PKU9bQ0gyXUMoPUMxQyg9TylbT0hdKVtDSDJdU1tDQEBIXShOMTIpW0NASF0oQzI9TylbTkhdQyg9TykvQyg9Ti9PW0NIM10pYzNbY0hdc2MobjMpW05IMl0=

> <s_epik_cmdline>
J2VwaWtfcHl0aG9uJywgJy1waHQnLCAnMC4wJywgJy1waCcsICc3LjQnLCAnLW50JywgJy1tYScsICc1MDAnLCAnLWltYWUnLCAnPGluZmlsZS5tYWU+JywgJy1vbWFlJywgJzxvdXRmaWxlLm1hZT4n

> <r_lp_tautomer_probability>
1

> <r_epik_Ionization_Penalty>
  0.0004

> <r_epik_Ionization_Penalty_Charging>
  0.0000

> <r_epik_Ionization_Penalty_Neutral>
  0.0004

> <r_epik_State_Penalty>
  0.0000

> <r_epik_Charging_Adjusted_Penalty>
5.45682606121274e-06

> <i_epik_Tot_Q>
-1

> <i_epik_Tot_abs_Q>
1

> <s_epik_Chemistry_Notes>
This compound has an ester and may undergo hydrolysis at high or low pH. This compound has an imine and may undergo hydrolysis. This compound contains an acetal/aminal-like group ( X-CH(R)-Y where X, Y are N, S, or O) that may be acid/base labile, releasing an aldehyde.

> <s_m_subgroup_title>
glide-dock_Nicaido_neutral_pv1

> <s_m_subgroupid>
glide-dock_Nicaido_neutral_pv1

> <b_m_subgroup_collapsed>
0

$$$$
Piperacillin
                    3D
 Schrodinger Suite 2022-2.
 62 65  0  0  1  0            999 V2000
  -36.3696  -21.6467  -19.6601 C   0  0  0  0  0  0
  -36.9532  -21.5159  -21.0753 C   0  0  0  0  0  0
  -36.1392  -20.6530  -21.9428 N   0  0  0  0  0  0
  -36.6775  -19.3257  -22.2424 C   0  0  0  0  0  0
  -36.3023  -18.8901  -23.6618 C   0  0  0  0  0  0
  -34.8424  -18.9902  -23.9057 N   0  0  0  0  0  0
  -34.1771  -20.0847  -23.3927 C   0  0  0  0  0  0
  -34.9747  -21.0831  -22.4825 C   0  0  0  0  0  0
  -34.5217  -22.2164  -22.3035 O   0  0  0  0  0  0
  -32.9924  -20.3689  -23.6087 O   0  0  0  0  0  0
  -34.2914  -18.0092  -24.6976 C   0  0  0  0  0  0
  -32.9682  -18.0890  -24.9455 N   0  0  0  0  0  0
  -32.1668  -17.3620  -25.9368 C   0  0  2  0  0  0
  -32.8493  -17.3152  -27.2726 C   0  0  0  0  0  0
  -33.4183  -18.4597  -27.8884 C   0  0  0  0  0  0
  -34.0388  -18.3835  -29.1489 C   0  0  0  0  0  0
  -34.1126  -17.1484  -29.8138 C   0  0  0  0  0  0
  -33.5687  -15.9984  -29.2130 C   0  0  0  0  0  0
  -32.9433  -16.0854  -27.9590 C   0  0  0  0  0  0
  -30.8207  -18.0914  -26.1637 C   0  0  0  0  0  0
  -30.1917  -18.4754  -25.0467 N   0  0  0  0  0  0
  -28.9760  -19.2730  -24.9994 C   0  0  1  0  0  0
  -28.6891  -19.7297  -23.5643 C   0  0  2  0  0  0
  -28.8819  -21.0951  -24.0062 N   0  0  0  0  0  0
  -29.1984  -20.7667  -25.2997 C   0  0  0  0  0  0
  -29.5657  -21.4461  -26.2388 O   0  0  0  0  0  0
  -29.2561  -22.1916  -23.1336 C   0  0  2  0  0  0
  -29.6678  -21.5123  -21.7797 C   0  0  0  0  0  0
  -30.9897  -22.1064  -21.2734 C   0  0  0  0  0  0
  -29.8682  -19.7317  -22.1789 S   0  0  0  0  0  0
  -28.5989  -21.5955  -20.6702 C   0  0  0  0  0  0
  -28.1752  -23.2862  -23.0774 C   0  0  0  0  0  0
  -27.1504  -23.1493  -23.7850 O   0  5  0  0  0  0
  -28.4130  -24.3255  -22.4135 O   0  0  0  0  0  0
  -30.3744  -18.3458  -27.2871 O   0  0  0  0  0  0
  -34.9598  -17.0959  -25.1913 O   0  0  0  0  0  0
  -36.9584  -22.3442  -19.0638 H   0  0  0  0  0  0
  -35.3410  -22.0123  -19.6695 H   0  0  0  0  0  0
  -36.3685  -20.6894  -19.1388 H   0  0  0  0  0  0
  -37.9737  -21.1426  -20.9987 H   0  0  0  0  0  0
  -37.0409  -22.5039  -21.5270 H   0  0  0  0  0  0
  -37.7610  -19.2941  -22.1279 H   0  0  0  0  0  0
  -36.2706  -18.6090  -21.5329 H   0  0  0  0  0  0
  -36.6998  -17.8815  -23.7916 H   0  0  0  0  0  0
  -36.8204  -19.5154  -24.3937 H   0  0  0  0  0  0
  -32.4976  -18.8641  -24.4895 H   0  0  0  0  0  0
  -31.9693  -16.3636  -25.5492 H   0  0  0  0  0  0
  -33.3732  -19.4133  -27.3830 H   0  0  0  0  0  0
  -34.4616  -19.2676  -29.6025 H   0  0  0  0  0  0
  -34.5868  -17.0759  -30.7799 H   0  0  0  0  0  0
  -33.6175  -15.0418  -29.7101 H   0  0  0  0  0  0
  -32.5315  -15.1910  -27.5137 H   0  0  0  0  0  0
  -30.5965  -18.2272  -24.1544 H   0  0  0  0  0  0
  -28.1103  -18.8142  -25.4817 H   0  0  0  0  0  0
  -27.6712  -19.5232  -23.2297 H   0  0  0  0  0  0
  -30.1349  -22.6521  -23.5879 H   0  0  0  0  0  0
  -30.8670  -23.1463  -20.9736 H   0  0  0  0  0  0
  -31.7632  -22.0732  -22.0375 H   0  0  0  0  0  0
  -31.3703  -21.5602  -20.4143 H   0  0  0  0  0  0
  -28.4437  -22.6169  -20.3261 H   0  0  0  0  0  0
  -27.6424  -21.2012  -21.0112 H   0  0  0  0  0  0
  -28.8981  -21.0143  -19.7967 H   0  0  0  0  0  0
  1  2  1  0  0  0
  1 37  1  0  0  0
  1 38  1  0  0  0
  1 39  1  0  0  0
  2  3  1  0  0  0
  2 40  1  0  0  0
  2 41  1  0  0  0
  3  8  1  0  0  0
  3  4  1  0  0  0
  4  5  1  0  0  0
  4 42  1  0  0  0
  4 43  1  0  0  0
  5  6  1  0  0  0
  5 44  1  0  0  0
  5 45  1  0  0  0
  6  7  1  0  0  0
  6 11  1  0  0  0
  7  8  1  0  0  0
  7 10  2  0  0  0
  8  9  2  0  0  0
 11 12  1  0  0  0
 11 36  2  0  0  0
 12 13  1  0  0  0
 12 46  1  0  0  0
 13 14  1  0  0  0
 13 20  1  0  0  0
 13 47  1  0  0  0
 14 19  1  0  0  0
 14 15  2  0  0  0
 15 16  1  0  0  0
 15 48  1  0  0  0
 16 17  2  0  0  0
 16 49  1  0  0  0
 17 18  1  0  0  0
 17 50  1  0  0  0
 18 19  2  0  0  0
 18 51  1  0  0  0
 19 52  1  0  0  0
 20 21  1  0  0  0
 20 35  2  0  0  0
 21 22  1  0  0  0
 21 53  1  0  0  0
 22 25  1  0  0  0
 22 23  1  0  0  0
 22 54  1  0  0  0
 23 30  1  0  0  0
 23 24  1  0  0  0
 23 55  1  0  0  0
 24 25  1  0  0  0
 24 27  1  0  0  0
 25 26  2  0  0  0
 27 28  1  0  0  0
 27 32  1  0  0  0
 27 56  1  0  0  0
 28 29  1  0  0  0
 28 30  1  0  0  0
 28 31  1  0  0  0
 29 57  1  0  0  0
 29 58  1  0  0  0
 29 59  1  0  0  0
 31 60  1  0  0  0
 31 61  1  0  0  0
 31 62  1  0  0  0
 32 33  1  0  0  0
 32 34  2  0  0  0
M  CHG  1  33  -1
M  END
> <s_m_entry_id>
27636

> <s_m_entry_name>
data_maestro.11

> <s_m_Source_Path>
C:\Users\olshana1\Git\GramNeg-Accumulation\Gram Negative Permeation - OmpF

> <s_m_Source_File>
data_maestro.csv

> <i_m_Source_File_Index>
11

> <s_m_job_name>
glide-dock_Nicaido_neutral

> <s_i_glide_gridfile>
3POX-grid

> <i_i_glide_lignum>
15

> <i_i_glide_rotatable_bonds>
9

> <r_i_docking_score>
-4.38154425801943

> <r_i_glide_ligand_efficiency>
-0.121709562722762

> <r_i_glide_ligand_efficiency_sa>
-0.401876121125294

> <r_i_glide_ligand_efficiency_ln>
-0.95593458145398

> <r_i_glide_gscore>
-4.38154425801943

> <r_i_glide_lipo>
-0.43529021911123

> <r_i_glide_hbond>
-0.730282237087074

> <r_i_glide_metal>
0

> <r_i_glide_rewards>
0.00604712846113453

> <r_i_glide_evdw>
-36.2475395202637

> <r_i_glide_ecoul>
-9.40238666534424

> <r_i_glide_erotb>
0.461572583116075

> <r_i_glide_esite>
-0.46085653758352

> <r_i_glide_emodel>
-65.0374244128635

> <r_i_glide_energy>
-45.6499261856079

> <r_i_glide_einternal>
9.46033763885498

> <i_i_glide_confnum>
3

> <i_i_glide_posenum>
361

> <r_i_glide_eff_state_penalty>
0

> <r_glide_res:A132_vdw>
-0.646883889488451

> <r_glide_res:A132_coul>
-37.8772439571356

> <r_glide_res:A132_hbond>
-0.0171098486641394

> <r_glide_res:A132_dist>
2.36355209921889

> <r_glide_res:A132_Eint>
-38.5412376952882

> <r_glide_res:A117_vdw>
-4.33475329995382

> <r_glide_res:A117_coul>
20.2047328842697

> <r_glide_res:A117_hbond>
0

> <r_glide_res:A117_dist>
2.88132561440356

> <r_glide_res:A117_Eint>
15.8699795843159

> <r_glide_res:A113_vdw>
-4.05611873553323

> <r_glide_res:A113_coul>
23.0024702680189

> <r_glide_res:A113_hbond>
0

> <r_glide_res:A113_dist>
2.31298233802566

> <r_glide_res:A113_Eint>
18.9463515324856

> <r_glide_res:A82_vdw>
1.07251548817214

> <r_glide_res:A82_coul>
-53.1921933403591

> <r_glide_res:A82_hbond>
-0.479217769221939

> <r_glide_res:A82_dist>
1.97203549664908

> <r_glide_res:A82_Eint>
-52.5988956214089

> <r_glide_res:A42_vdw>
-2.13805004906328

> <r_glide_res:A42_coul>
-42.6119147347226

> <r_glide_res:A42_hbond>
-0.0739546192009951

> <r_glide_res:A42_dist>
2.38075918294357

> <r_glide_res:A42_Eint>
-44.8239194029869

> <r_glide_res:A16_vdw>
-2.12515117946519

> <r_glide_res:A16_coul>
-38.1907391619274

> <r_glide_res:A16_hbond>
-0.16

> <r_glide_res:A16_dist>
2.03644374752559

> <r_glide_res:A16_Eint>
-40.4758903413926

> <s_m_source_file>
ligprep_Nicaido_neutral.maegz

> <i_m_source_file_index>
11

> <i_lp_mmshare_version>
58128

> <i_f3d_flags>
0

> <s_lp_Force_Field>
S-OPLS

> <r_lp_Energy>
67.572455

> <b_lp_Chiralities_Consistent>
1

> <s_lp_Variant>
Piperacillin-1

> <s_epik_input>
W0NIM11bQ0gyXU4xW0NIMl1bQ0gyXU4oQyg9TylDMT1PKUMoPU8pW05IXVtDQEhdKGMyW2NIXVtjSF1bY0hdW2NIXVtjSF0yKUMoPU8pW05IXVtDQEBIXTNDKD1PKU4oW0NAQEhdMzQpW0NASF0oQyhTNCkoW0NIM10pW0NIM10pQyg9TylbT0hd

> <s_epik_cmdline>
J2VwaWtfcHl0aG9uJywgJy1waHQnLCAnMC4wJywgJy1waCcsICc3LjQnLCAnLW50JywgJy1tYScsICc1MDAnLCAnLWltYWUnLCAnPGluZmlsZS5tYWU+JywgJy1vbWFlJywgJzxvdXRmaWxlLm1hZT4n

> <r_lp_tautomer_probability>
1

> <r_epik_Ionization_Penalty>
  0.0049

> <r_epik_Ionization_Penalty_Charging>
  0.0000

> <r_epik_Ionization_Penalty_Neutral>
  0.0049

> <r_epik_State_Penalty>
  0.0000

> <r_epik_Charging_Adjusted_Penalty>
1.13204004886318e-05

> <i_epik_Tot_Q>
-1

> <i_epik_Tot_abs_Q>
1

> <s_epik_Chemistry_Notes>
This compound contains an acetal/aminal-like group ( X-CH(R)-Y where X, Y are N, S, or O) that may be acid/base labile, releasing an aldehyde.

> <s_m_subgroup_title>
glide-dock_Nicaido_neutral_pv1

> <s_m_subgroupid>
glide-dock_Nicaido_neutral_pv1

> <b_m_subgroup_collapsed>
0

$$$$
Carbenicillin
                    3D
 Schrodinger Suite 2022-2.
 42 44  0  0  1  0            999 V2000
  -25.7668  -22.9862  -17.6134 C   0  0  0  0  0  0
  -25.8283  -21.7398  -18.5208 C   0  0  0  0  0  0
  -25.4984  -22.0112  -20.0330 C   0  0  2  0  0  0
  -26.8006  -22.1184  -20.6657 N   0  0  0  0  0  0
  -27.9495  -21.3377  -20.2543 C   0  0  2  0  0  0
  -27.5691  -21.1588  -18.4853 S   0  0  0  0  0  0
  -28.8429  -22.4267  -20.8667 C   0  0  2  0  0  0
  -27.5274  -23.0257  -21.3976 C   0  0  0  0  0  0
  -27.2102  -23.9495  -22.1198 O   0  0  0  0  0  0
  -29.7022  -21.9270  -21.9354 N   0  0  0  0  0  0
  -30.3174  -22.7179  -22.8297 C   0  0  0  0  0  0
  -30.9780  -22.0134  -24.0338 C   0  0  2  0  0  0
  -32.4185  -22.4937  -24.2482 C   0  0  0  0  0  0
  -33.4872  -21.6246  -23.9365 C   0  0  0  0  0  0
  -34.8214  -22.0392  -24.1138 C   0  0  0  0  0  0
  -35.1002  -23.3287  -24.6047 C   0  0  0  0  0  0
  -34.0436  -24.2050  -24.9152 C   0  0  0  0  0  0
  -32.7095  -23.7912  -24.7363 C   0  0  0  0  0  0
  -30.1157  -22.2537  -25.3033 C   0  0  0  0  0  0
  -28.9672  -22.7495  -25.2132 O   0  5  0  0  0  0
  -30.6079  -21.9475  -26.4134 O   0  0  0  0  0  0
  -30.3241  -23.9496  -22.7297 O   0  0  0  0  0  0
  -24.5426  -23.1860  -20.3290 C   0  0  0  0  0  0
  -24.9937  -24.3494  -20.2290 O   0  5  0  0  0  0
  -23.3693  -22.9114  -20.6603 O   0  0  0  0  0  0
  -24.9124  -20.6469  -17.9447 C   0  0  0  0  0  0
  -24.7554  -23.3840  -17.5308 H   0  0  0  0  0  0
  -26.0993  -22.7484  -16.6022 H   0  0  0  0  0  0
  -26.4134  -23.7816  -17.9850 H   0  0  0  0  0  0
  -25.0489  -21.1168  -20.4671 H   0  0  0  0  0  0
  -28.0063  -20.3661  -20.7496 H   0  0  0  0  0  0
  -29.3601  -23.0201  -20.1111 H   0  0  0  0  0  0
  -29.7609  -20.9250  -22.0465 H   0  0  0  0  0  0
  -30.9870  -20.9370  -23.8569 H   0  0  0  0  0  0
  -33.2885  -20.6340  -23.5535 H   0  0  0  0  0  0
  -35.6306  -21.3670  -23.8694 H   0  0  0  0  0  0
  -36.1237  -23.6460  -24.7392 H   0  0  0  0  0  0
  -34.2554  -25.1962  -25.2882 H   0  0  0  0  0  0
  -31.9085  -24.4754  -24.9730 H   0  0  0  0  0  0
  -23.8664  -20.9533  -17.9703 H   0  0  0  0  0  0
  -25.0016  -19.7174  -18.5084 H   0  0  0  0  0  0
  -25.1702  -20.4224  -16.9086 H   0  0  0  0  0  0
  1  2  1  0  0  0
  1 27  1  0  0  0
  1 28  1  0  0  0
  1 29  1  0  0  0
  2  6  1  0  0  0
  2  3  1  0  0  0
  2 26  1  0  0  0
  3  4  1  0  0  0
  3 23  1  0  0  0
  3 30  1  0  0  0
  4  8  1  0  0  0
  4  5  1  0  0  0
  5  6  1  0  0  0
  5  7  1  0  0  0
  5 31  1  0  0  0
  7  8  1  0  0  0
  7 10  1  0  0  0
  7 32  1  0  0  0
  8  9  2  0  0  0
 10 11  1  0  0  0
 10 33  1  0  0  0
 11 12  1  0  0  0
 11 22  2  0  0  0
 12 13  1  0  0  0
 12 19  1  0  0  0
 12 34  1  0  0  0
 13 18  1  0  0  0
 13 14  2  0  0  0
 14 15  1  0  0  0
 14 35  1  0  0  0
 15 16  2  0  0  0
 15 36  1  0  0  0
 16 17  1  0  0  0
 16 37  1  0  0  0
 17 18  2  0  0  0
 17 38  1  0  0  0
 18 39  1  0  0  0
 19 20  1  0  0  0
 19 21  2  0  0  0
 23 24  1  0  0  0
 23 25  2  0  0  0
 26 40  1  0  0  0
 26 41  1  0  0  0
 26 42  1  0  0  0
M  CHG  2  20  -1  24  -1
M  END
> <s_m_entry_id>
27637

> <s_m_entry_name>
data_maestro.24

> <s_m_Source_Path>
C:\Users\olshana1\Git\GramNeg-Accumulation\Gram Negative Permeation - OmpF

> <s_m_Source_File>
data_maestro.csv

> <i_m_Source_File_Index>
24

> <s_m_job_name>
glide-dock_Nicaido_neutral

> <s_i_glide_gridfile>
3POX-grid

> <i_i_glide_lignum>
31

> <i_i_glide_rotatable_bonds>
6

> <r_i_docking_score>
-4.37909674981332

> <r_i_glide_ligand_efficiency>
-0.168426798069743

> <r_i_glide_ligand_efficiency_sa>
-0.498963726554166

> <r_i_glide_ligand_efficiency_ln>
-1.02841650270524

> <r_i_glide_gscore>
-4.37909674981332

> <r_i_glide_lipo>
0

> <r_i_glide_hbond>
-0.951015720921661

> <r_i_glide_metal>
0

> <r_i_glide_rewards>
-0.840748179365883

> <r_i_glide_evdw>
-16.972240447998

> <r_i_glide_ecoul>
-11.2182655334473

> <r_i_glide_erotb>
0.409918473255716

> <r_i_glide_esite>
-0.465899470364505

> <r_i_glide_emodel>
-51.1172356141001

> <r_i_glide_energy>
-28.1905059814453

> <r_i_glide_einternal>
4.14818239212036

> <i_i_glide_confnum>
5

> <i_i_glide_posenum>
77

> <r_i_glide_eff_state_penalty>
0

> <r_glide_res:A132_vdw>
-0.502455672318344

> <r_glide_res:A132_coul>
-69.500760280291

> <r_glide_res:A132_hbond>
-0.191418754032259

> <r_glide_res:A132_dist>
1.80859241931878

> <r_glide_res:A132_Eint>
-70.1946347066416

> <r_glide_res:A117_vdw>
-0.648819840633875

> <r_glide_res:A117_coul>
41.1669022392456

> <r_glide_res:A117_hbond>
0

> <r_glide_res:A117_dist>
4.11203447117787

> <r_glide_res:A117_Eint>
40.5180823986117

> <r_glide_res:A113_vdw>
-3.24494274292861

> <r_glide_res:A113_coul>
40.0748198765161

> <r_glide_res:A113_hbond>
0

> <r_glide_res:A113_dist>
2.90851764419741

> <r_glide_res:A113_Eint>
36.8298771335875

> <r_glide_res:A82_vdw>
-2.23894574006131

> <r_glide_res:A82_coul>
-70.9447859299756

> <r_glide_res:A82_hbond>
-0.32

> <r_glide_res:A82_dist>
2.01245917076626

> <r_glide_res:A82_Eint>
-73.5037316700369

> <r_glide_res:A42_vdw>
2.48796612441711

> <r_glide_res:A42_coul>
-75.9580635212742

> <r_glide_res:A42_hbond>
-0.285685631575876

> <r_glide_res:A42_dist>
1.66136660642982

> <r_glide_res:A42_Eint>
-73.7557830284329

> <r_glide_res:A16_vdw>
0.636564786731344

> <r_glide_res:A16_coul>
-66.1819118532943

> <r_glide_res:A16_hbond>
-0.153911335313526

> <r_glide_res:A16_dist>
1.90506456288143

> <r_glide_res:A16_Eint>
-65.6992584018765

> <s_m_source_file>
ligprep_Nicaido_neutral.maegz

> <i_m_source_file_index>
24

> <i_lp_mmshare_version>
58128

> <i_f3d_flags>
0

> <s_lp_Force_Field>
S-OPLS

> <r_lp_Energy>
37.112724

> <b_lp_Chiralities_Consistent>
1

> <s_lp_Variant>
Carbenicillin-1

> <s_epik_input>
W09IXUMoPU8pW0NAQEhdMUMoW0NIM10pKFtDSDNdKVNbQ0BASF0oTjEyKVtDQEhdKEMyPU8pW05IXUMoPU8pW0NAQEhdKEMoPU8pW09IXSljM1tjSF1bY0hdW2NIXVtjSF1bY0hdMw==

> <s_epik_cmdline>
J2VwaWtfcHl0aG9uJywgJy1waHQnLCAnMC4wJywgJy1waCcsICc3LjQnLCAnLW50JywgJy1tYScsICc1MDAnLCAnLWltYWUnLCAnPGluZmlsZS5tYWU+JywgJy1vbWFlJywgJzxvdXRmaWxlLm1hZT4n

> <r_lp_tautomer_probability>
1

> <r_epik_Ionization_Penalty>
  0.0000

> <r_epik_Ionization_Penalty_Charging>
  0.0000

> <r_epik_Ionization_Penalty_Neutral>
  0.0000

> <r_epik_State_Penalty>
  0.0000

> <r_epik_Charging_Adjusted_Penalty>
4.98035685666923e-05

> <i_epik_Tot_Q>
-2

> <i_epik_Tot_abs_Q>
2

> <s_epik_Chemistry_Notes>
This compound contains an acetal/aminal-like group ( X-CH(R)-Y where X, Y are N, S, or O) that may be acid/base labile, releasing an aldehyde.

> <s_m_subgroup_title>
glide-dock_Nicaido_neutral_pv1

> <s_m_subgroupid>
glide-dock_Nicaido_neutral_pv1

> <b_m_subgroup_collapsed>
0

$$$$
Penicillin N
                    3D
 Schrodinger Suite 2022-2.
 44 45  0  0  1  0            999 V2000
  -20.6805  -22.4055  -19.9632 C   0  0  0  0  0  0
  -20.6813  -23.9413  -19.8377 C   0  0  0  0  0  0
  -19.5180  -24.5024  -20.6818 C   0  0  0  0  0  0
  -20.6511  -24.3460  -18.3209 C   0  0  2  0  0  0
  -19.9339  -25.6586  -17.9604 C   0  0  0  0  0  0
  -20.3687  -26.7464  -18.4134 O   0  5  0  0  0  0
  -18.9369  -25.5571  -17.2132 O   0  0  0  0  0  0
  -22.0485  -24.4421  -17.9689 N   0  0  0  0  0  0
  -23.0807  -24.8912  -18.8809 C   0  0  1  0  0  0
  -24.0691  -23.9941  -18.1111 C   0  0  2  0  0  0
  -24.5261  -22.8374  -18.8708 N   0  0  0  0  0  0
  -25.3090  -22.8895  -19.9531 C   0  0  0  0  0  0
  -25.6216  -21.5405  -20.6111 C   0  0  0  0  0  0
  -26.8650  -21.5518  -21.5173 C   0  0  0  0  0  0
  -28.1785  -21.8193  -20.7528 C   0  0  0  0  0  0
  -29.4312  -21.9195  -21.6517 C   0  0  2  0  0  0
  -30.6415  -21.9490  -20.8135 N   0  3  0  0  0  0
  -29.4557  -23.1505  -22.5858 C   0  0  0  0  0  0
  -30.3243  -23.1587  -23.4855 O   0  5  0  0  0  0
  -28.6419  -24.0880  -22.4133 O   0  0  0  0  0  0
  -25.7428  -23.9491  -20.4162 O   0  0  0  0  0  0
  -22.8767  -23.6542  -17.2126 C   0  0  0  0  0  0
  -22.6553  -22.9166  -16.2781 O   0  0  0  0  0  0
  -22.2814  -24.5561  -20.4930 S   0  0  0  0  0  0
  -19.7526  -21.9782  -19.5819 H   0  0  0  0  0  0
  -20.7819  -22.0914  -21.0039 H   0  0  0  0  0  0
  -21.5010  -21.9552  -19.4015 H   0  0  0  0  0  0
  -18.5531  -24.2156  -20.2626 H   0  0  0  0  0  0
  -19.5504  -25.5898  -20.7431 H   0  0  0  0  0  0
  -19.5594  -24.1272  -21.7049 H   0  0  0  0  0  0
  -20.1894  -23.5499  -17.7323 H   0  0  0  0  0  0
  -23.3013  -25.9492  -18.7707 H   0  0  0  0  0  0
  -24.8685  -24.5521  -17.6237 H   0  0  0  0  0  0
  -24.2191  -21.9329  -18.5408 H   0  0  0  0  0  0
  -24.7479  -21.2429  -21.1923 H   0  0  0  0  0  0
  -25.7509  -20.7847  -19.8345 H   0  0  0  0  0  0
  -26.7150  -22.2842  -22.3104 H   0  0  0  0  0  0
  -26.9427  -20.5879  -22.0232 H   0  0  0  0  0  0
  -28.3235  -21.0067  -20.0386 H   0  0  0  0  0  0
  -28.0999  -22.7224  -20.1461 H   0  0  0  0  0  0
  -29.4888  -21.0225  -22.2705 H   0  0  0  0  0  0
  -31.4526  -22.0020  -21.4121 H   0  0  0  0  0  0
  -30.6243  -22.7466  -20.1952 H   0  0  0  0  0  0
  -30.6973  -21.1159  -20.2360 H   0  0  0  0  0  0
  1  2  1  0  0  0
  1 25  1  0  0  0
  1 26  1  0  0  0
  1 27  1  0  0  0
  2 24  1  0  0  0
  2  3  1  0  0  0
  2  4  1  0  0  0
  3 28  1  0  0  0
  3 29  1  0  0  0
  3 30  1  0  0  0
  4  5  1  0  0  0
  4  8  1  0  0  0
  4 31  1  0  0  0
  5  6  1  0  0  0
  5  7  2  0  0  0
  8 22  1  0  0  0
  8  9  1  0  0  0
  9 10  1  0  0  0
  9 24  1  0  0  0
  9 32  1  0  0  0
 10 11  1  0  0  0
 10 22  1  0  0  0
 10 33  1  0  0  0
 11 12  1  0  0  0
 11 34  1  0  0  0
 12 13  1  0  0  0
 12 21  2  0  0  0
 13 14  1  0  0  0
 13 35  1  0  0  0
 13 36  1  0  0  0
 14 15  1  0  0  0
 14 37  1  0  0  0
 14 38  1  0  0  0
 15 16  1  0  0  0
 15 39  1  0  0  0
 15 40  1  0  0  0
 16 17  1  0  0  0
 16 18  1  0  0  0
 16 41  1  0  0  0
 17 42  1  0  0  0
 17 43  1  0  0  0
 17 44  1  0  0  0
 18 19  1  0  0  0
 18 20  2  0  0  0
 22 23  2  0  0  0
M  CHG  3   6  -1  17   1  19  -1
M  END
> <s_m_entry_id>
27638

> <s_m_entry_name>
data_maestro.26

> <s_m_Source_Path>
C:\Users\olshana1\Git\GramNeg-Accumulation\Gram Negative Permeation - OmpF

> <s_m_Source_File>
data_maestro.csv

> <i_m_Source_File_Index>
26

> <s_m_job_name>
glide-dock_Nicaido_neutral

> <s_i_glide_gridfile>
3POX-grid

> <i_i_glide_lignum>
33

> <i_i_glide_rotatable_bonds>
8

> <r_i_docking_score>
-4.37475696460328

> <r_i_glide_ligand_efficiency>
-0.182281540191803

> <r_i_glide_ligand_efficiency_sa>
-0.525790945476204

> <r_i_glide_ligand_efficiency_ln>
-1.04708008614598

> <r_i_glide_gscore>
-4.37475696460328

> <r_i_glide_lipo>
0

> <r_i_glide_hbond>
-0.915089829687778

> <r_i_glide_metal>
0

> <r_i_glide_rewards>
-0.965515022296297

> <r_i_glide_evdw>
-14.5420742034912

> <r_i_glide_ecoul>
-14.8798408508301

> <r_i_glide_erotb>
0.894795809723686

> <r_i_glide_esite>
-0.429868084543816

> <r_i_glide_emodel>
-54.7202015718457

> <r_i_glide_energy>
-29.4219150543213

> <r_i_glide_einternal>
1.48657095432281

> <i_i_glide_confnum>
120

> <i_i_glide_posenum>
324

> <r_i_glide_eff_state_penalty>
0

> <r_glide_res:A132_vdw>
-1.50466272212789

> <r_glide_res:A132_coul>
-37.3925702008808

> <r_glide_res:A132_hbond>
-0.16

> <r_glide_res:A132_dist>
1.85332359502716

> <r_glide_res:A132_Eint>
-39.0572329230087

> <r_glide_res:A117_vdw>
-0.36873276070237

> <r_glide_res:A117_coul>
12.085471004969

> <r_glide_res:A117_hbond>
0

> <r_glide_res:A117_dist>
3.88876707975898

> <r_glide_res:A117_Eint>
11.7167382442666

> <r_glide_res:A113_vdw>
1.5887562221992

> <r_glide_res:A113_coul>
-19.2240790859624

> <r_glide_res:A113_hbond>
-0.219363956621599

> <r_glide_res:A113_dist>
2.01505743064464

> <r_glide_res:A113_Eint>
-17.8546868203848

> <r_glide_res:A82_vdw>
-0.782522001475273

> <r_glide_res:A82_coul>
-41.9410586375764

> <r_glide_res:A82_hbond>
-0.306358445997938

> <r_glide_res:A82_dist>
2.11662170616847

> <r_glide_res:A82_Eint>
-43.0299390850496

> <r_glide_res:A42_vdw>
-0.651622431738739

> <r_glide_res:A42_coul>
-26.2858922948043

> <r_glide_res:A42_hbond>
0

> <r_glide_res:A42_dist>
3.3799426113521

> <r_glide_res:A42_Eint>
-26.9375147265431

> <r_glide_res:A16_vdw>
-0.10387954963041

> <r_glide_res:A16_coul>
-15.5736347177293

> <r_glide_res:A16_hbond>
0

> <r_glide_res:A16_dist>
5.04647824357454

> <r_glide_res:A16_Eint>
-15.6775142673598

> <s_m_source_file>
ligprep_Nicaido_neutral.maegz

> <i_m_source_file_index>
26

> <i_lp_mmshare_version>
58128

> <i_f3d_flags>
0

> <s_lp_Force_Field>
S-OPLS

> <r_lp_Energy>
12.253328

> <b_lp_Chiralities_Consistent>
1

> <s_lp_Variant>
Penicillin N-1

> <s_epik_input>
W09IXUMoPU8pW0NASF0xQyhbQ0gzXSkoW0NIM10pU1tDQEBIXShOMTIpW0NAQEhdKEMyPU8pW05IXUMoPU8pW0NIMl1bQ0gyXVtDSDJdW0NASF0oW05IMl0pQyg9TylbT0hd

> <s_epik_cmdline>
J2VwaWtfcHl0aG9uJywgJy1waHQnLCAnMC4wJywgJy1waCcsICc3LjQnLCAnLW50JywgJy1tYScsICc1MDAnLCAnLWltYWUnLCAnPGluZmlsZS5tYWU+JywgJy1vbWFlJywgJzxvdXRmaWxlLm1hZT4n

> <r_lp_tautomer_probability>
1

> <r_epik_Ionization_Penalty>
  0.0034

> <r_epik_Ionization_Penalty_Charging>
  0.0034

> <r_epik_Ionization_Penalty_Neutral>
  0.0000

> <r_epik_State_Penalty>
  0.0000

> <r_epik_Charging_Adjusted_Penalty>
0.0034368723547391

> <i_epik_Tot_Q>
-1

> <i_epik_Tot_abs_Q>
3

> <s_epik_Chemistry_Notes>
This compound contains an acetal/aminal-like group ( X-CH(R)-Y where X, Y are N, S, or O) that may be acid/base labile, releasing an aldehyde.

> <s_m_subgroup_title>
glide-dock_Nicaido_neutral_pv1

> <s_m_subgroupid>
glide-dock_Nicaido_neutral_pv1

> <b_m_subgroup_collapsed>
0

$$$$
Moxalactam
                    3D
 Schrodinger Suite 2022-2.
 54 57  0  0  1  0            999 V2000
  -26.3641  -21.6522  -17.7595 C   0  0  0  0  0  0
  -25.5693  -22.8567  -17.8975 N   0  0  0  0  0  0
  -24.4634  -23.2803  -17.2668 C   0  0  0  0  0  0
  -23.6362  -22.3418  -16.0149 S   0  0  0  0  0  0
  -21.9273  -22.9877  -16.1031 C   0  0  0  0  0  0
  -21.3157  -23.0271  -17.5040 C   0  0  0  0  0  0
  -20.8589  -24.1289  -18.1658 C   0  0  0  0  0  0
  -20.7725  -25.6098  -17.6099 C   0  0  0  0  0  0
  -19.8703  -26.3437  -18.0771 O   0  5  0  0  0  0
  -21.5690  -25.9499  -16.7095 O   0  0  0  0  0  0
  -20.3973  -23.9376  -19.4771 N   0  0  0  0  0  0
  -20.1106  -22.6139  -20.0060 C   0  0  2  0  0  0
  -21.1665  -21.7586  -19.5881 O   0  0  0  0  0  0
  -21.2443  -21.6533  -18.1734 C   0  0  0  0  0  0
  -20.2969  -23.2363  -21.4030 C   0  0  1  0  0  0
  -20.1556  -24.6012  -20.6694 C   0  0  0  0  0  0
  -19.9814  -25.7649  -20.9655 O   0  0  0  0  0  0
  -21.6306  -22.9363  -21.9302 N   0  0  0  0  0  0
  -22.3321  -23.6374  -22.8274 C   0  0  0  0  0  0
  -23.5877  -22.9088  -23.3582 C   0  0  2  0  0  0
  -24.6752  -23.8653  -23.8966 C   0  0  0  0  0  0
  -24.3690  -24.8548  -24.6087 O   0  5  0  0  0  0
  -25.8556  -23.5501  -23.6135 O   0  0  0  0  0  0
  -23.2043  -21.8902  -24.4282 C   0  0  0  0  0  0
  -22.6085  -22.2820  -25.6510 C   0  0  0  0  0  0
  -22.2127  -21.3103  -26.5906 C   0  0  0  0  0  0
  -22.4051  -19.9450  -26.3138 C   0  0  0  0  0  0
  -22.0050  -19.0056  -27.2135 O   0  0  0  0  0  0
  -23.0073  -19.5495  -25.1060 C   0  0  0  0  0  0
  -23.4074  -20.5177  -24.1689 C   0  0  0  0  0  0
  -21.9692  -24.7495  -23.2135 O   0  0  0  0  0  0
  -19.2245  -23.0298  -22.3199 O   0  0  0  0  0  0
  -19.1846  -21.7352  -22.9053 C   0  0  0  0  0  0
  -24.1174  -24.4826  -17.7134 N   0  0  0  0  0  0
  -25.0525  -24.7654  -18.6857 N   0  0  0  0  0  0
  -25.9223  -23.8075  -18.7983 N   0  0  0  0  0  0
  -25.8170  -20.8873  -17.2091 H   0  0  0  0  0  0
  -27.2840  -21.8871  -17.2239 H   0  0  0  0  0  0
  -26.6184  -21.2580  -18.7438 H   0  0  0  0  0  0
  -21.3024  -22.3469  -15.4810 H   0  0  0  0  0  0
  -21.9330  -23.9507  -15.6144 H   0  0  0  0  0  0
  -19.1011  -22.2684  -19.7715 H   0  0  0  0  0  0
  -22.1263  -21.0566  -17.9469 H   0  0  0  0  0  0
  -20.3831  -21.1082  -17.7860 H   0  0  0  0  0  0
  -22.0193  -22.0595  -21.6131 H   0  0  0  0  0  0
  -24.0316  -22.3786  -22.5133 H   0  0  0  0  0  0
  -22.4420  -23.3269  -25.8691 H   0  0  0  0  0  0
  -21.7549  -21.6090  -27.5220 H   0  0  0  0  0  0
  -22.2980  -18.1373  -26.9796 H   0  0  0  0  0  0
  -23.1625  -18.5031  -24.8855 H   0  0  0  0  0  0
  -23.8611  -20.1937  -23.2434 H   0  0  0  0  0  0
  -18.2851  -21.6407  -23.5133 H   0  0  0  0  0  0
  -19.1566  -20.9554  -22.1438 H   0  0  0  0  0  0
  -20.0413  -21.5580  -23.5568 H   0  0  0  0  0  0
  1  2  1  0  0  0
  1 37  1  0  0  0
  1 38  1  0  0  0
  1 39  1  0  0  0
  2 36  1  0  0  0
  2  3  1  0  0  0
  3  4  1  0  0  0
  3 34  2  0  0  0
  4  5  1  0  0  0
  5  6  1  0  0  0
  5 40  1  0  0  0
  5 41  1  0  0  0
  6 14  1  0  0  0
  6  7  2  0  0  0
  7  8  1  0  0  0
  7 11  1  0  0  0
  8  9  1  0  0  0
  8 10  2  0  0  0
 11 16  1  0  0  0
 11 12  1  0  0  0
 12 13  1  0  0  0
 12 15  1  0  0  0
 12 42  1  0  0  0
 13 14  1  0  0  0
 14 43  1  0  0  0
 14 44  1  0  0  0
 15 16  1  0  0  0
 15 18  1  0  0  0
 15 32  1  0  0  0
 16 17  2  0  0  0
 18 19  1  0  0  0
 18 45  1  0  0  0
 19 20  1  0  0  0
 19 31  2  0  0  0
 20 21  1  0  0  0
 20 24  1  0  0  0
 20 46  1  0  0  0
 21 22  1  0  0  0
 21 23  2  0  0  0
 24 30  1  0  0  0
 24 25  2  0  0  0
 25 26  1  0  0  0
 25 47  1  0  0  0
 26 27  2  0  0  0
 26 48  1  0  0  0
 27 28  1  0  0  0
 27 29  1  0  0  0
 28 49  1  0  0  0
 29 30  2  0  0  0
 29 50  1  0  0  0
 30 51  1  0  0  0
 32 33  1  0  0  0
 33 52  1  0  0  0
 33 53  1  0  0  0
 33 54  1  0  0  0
 34 35  1  0  0  0
 35 36  2  0  0  0
M  CHG  2   9  -1  22  -1
M  END
> <s_m_entry_id>
27639

> <s_m_entry_name>
data_maestro.20

> <s_m_Source_Path>
C:\Users\olshana1\Git\GramNeg-Accumulation\Gram Negative Permeation - OmpF

> <s_m_Source_File>
data_maestro.csv

> <i_m_Source_File_Index>
20

> <s_m_job_name>
glide-dock_Nicaido_neutral

> <s_i_glide_gridfile>
3POX-grid

> <i_i_glide_lignum>
25

> <i_i_glide_rotatable_bonds>
11

> <r_i_docking_score>
-4.36738330343964

> <r_i_glide_ligand_efficiency>
-0.121316202873323

> <r_i_glide_ligand_efficiency_sa>
-0.400577275521363

> <r_i_glide_ligand_efficiency_ln>
-0.95284504374945

> <r_i_glide_gscore>
-4.36738330343964

> <r_i_glide_lipo>
-0.0462220298456256

> <r_i_glide_hbond>
-0.656999998528988

> <r_i_glide_metal>
0

> <r_i_glide_rewards>
0.00257973759791319

> <r_i_glide_evdw>
-31.894495010376

> <r_i_glide_ecoul>
-13.4202899932861

> <r_i_glide_erotb>
0.534860792752126

> <r_i_glide_esite>
-0.593833555903351

> <r_i_glide_emodel>
-65.8433985684465

> <r_i_glide_energy>
-45.3147850036621

> <r_i_glide_einternal>
20.2488880157471

> <i_i_glide_confnum>
99

> <i_i_glide_posenum>
184

> <r_i_glide_eff_state_penalty>
0

> <r_glide_res:A132_vdw>
-2.07404795239894

> <r_glide_res:A132_coul>
-57.6131693854454

> <r_glide_res:A132_hbond>
0

> <r_glide_res:A132_dist>
2.58380045646693

> <r_glide_res:A132_Eint>
-59.6872173378443

> <r_glide_res:A117_vdw>
-1.06741322522782

> <r_glide_res:A117_coul>
29.0521543079868

> <r_glide_res:A117_hbond>
0

> <r_glide_res:A117_dist>
2.28968761980553

> <r_glide_res:A117_Eint>
27.9847410827589

> <r_glide_res:A113_vdw>
-0.387773312705348

> <r_glide_res:A113_coul>
30.7677540487998

> <r_glide_res:A113_hbond>
0

> <r_glide_res:A113_dist>
4.07034926640011

> <r_glide_res:A113_Eint>
30.3799807360944

> <r_glide_res:A82_vdw>
0.415692485104448

> <r_glide_res:A82_coul>
-64.4607045999994

> <r_glide_res:A82_hbond>
-0.129857891378791

> <r_glide_res:A82_dist>
2.17062638458569

> <r_glide_res:A82_Eint>
-64.1748700062738

> <r_glide_res:A42_vdw>
-1.36261576220288

> <r_glide_res:A42_coul>
-53.8707457537773

> <r_glide_res:A42_hbond>
0

> <r_glide_res:A42_dist>
2.7783691406598

> <r_glide_res:A42_Eint>
-55.2333615159802

> <r_glide_res:A16_vdw>
-0.0811372532612364

> <r_glide_res:A16_coul>
-30.7164763673133

> <r_glide_res:A16_hbond>
0

> <r_glide_res:A16_dist>
6.76027312937248

> <r_glide_res:A16_Eint>
-30.7976136205746

> <s_m_source_file>
ligprep_Nicaido_neutral.maegz

> <i_m_source_file_index>
20

> <i_lp_mmshare_version>
58128

> <i_f3d_flags>
0

> <s_lp_Force_Field>
S-OPLS

> <r_lp_Energy>
52.146636

> <b_lp_Chiralities_Consistent>
1

> <s_lp_Variant>
Moxalactam-1

> <s_epik_input>
bjFubmMobjFbQ0gzXSlTW0NIMl1DKD1DMkMoPU8pW09IXSlbQ0gyXU9bQ0BASF0oTjIzKVtDQF0oQzM9TykoT1tDSDNdKVtOSF1DKD1PKVtDQEhdKEMoPU8pW09IXSljNFtjSF1bY0hdYyhbT0hdKVtjSF1bY0hdNA==

> <s_epik_cmdline>
J2VwaWtfcHl0aG9uJywgJy1waHQnLCAnMC4wJywgJy1waCcsICc3LjQnLCAnLW50JywgJy1tYScsICc1MDAnLCAnLWltYWUnLCAnPGluZmlsZS5tYWU+JywgJy1vbWFlJywgJzxvdXRmaWxlLm1hZT4n

> <r_lp_tautomer_probability>
1

> <r_epik_Ionization_Penalty>
  0.0029

> <r_epik_Ionization_Penalty_Charging>
  0.0001

> <r_epik_Ionization_Penalty_Neutral>
  0.0029

> <r_epik_State_Penalty>
  0.0000

> <r_epik_Charging_Adjusted_Penalty>
5.78268703870383e-05

> <i_epik_Tot_Q>
-2

> <i_epik_Tot_abs_Q>
2

> <s_epik_Chemistry_Notes>
This compound contains an acetal/aminal-like group ( X-CH(R)-Y where X, Y are N, S, or O) that may be acid/base labile, releasing an aldehyde.

> <s_m_subgroup_title>
glide-dock_Nicaido_neutral_pv1

> <s_m_subgroupid>
glide-dock_Nicaido_neutral_pv1

> <b_m_subgroup_collapsed>
0

$$$$
Ceftizoxime
                    3D
 Schrodinger Suite 2022-2.
 37 39  0  0  1  0            999 V2000
  -32.1397  -23.4119  -25.7946 C   0  0  0  0  0  0
  -31.2277  -22.3444  -25.6007 O   0  0  0  0  0  0
  -30.1667  -22.8233  -24.8186 N   0  0  0  0  0  0
  -29.4387  -21.8953  -24.3363 C   0  0  0  0  0  0
  -29.6987  -20.4415  -24.5382 C   0  0  0  0  0  0
  -30.1201  -19.6396  -23.5019 C   0  0  0  0  0  0
  -30.3737  -17.9928  -24.0122 S   0  0  0  0  0  0
  -29.8912  -18.4635  -25.6334 C   0  0  0  0  0  0
  -29.8521  -17.5496  -26.6685 N   0  0  0  0  0  0
  -29.5643  -19.7526  -25.7518 N   0  0  0  0  0  0
  -28.1909  -22.2677  -23.5517 C   0  0  0  0  0  0
  -27.3396  -21.2449  -23.3220 N   0  0  0  0  0  0
  -25.9378  -21.3105  -22.8758 C   0  0  1  0  0  0
  -25.6723  -22.1867  -21.6324 C   0  0  1  0  0  0
  -24.7742  -22.9710  -22.4641 N   0  0  0  0  0  0
  -25.0772  -22.3367  -23.6559 C   0  0  0  0  0  0
  -24.7691  -22.5513  -24.8084 O   0  0  0  0  0  0
  -24.0218  -24.0420  -21.9628 C   0  0  0  0  0  0
  -23.5349  -25.1288  -22.9753 C   0  0  0  0  0  0
  -24.3685  -25.5486  -23.8109 O   0  5  0  0  0  0
  -22.3689  -25.5495  -22.8133 O   0  0  0  0  0  0
  -23.7563  -24.1631  -20.6440 C   0  0  0  0  0  0
  -24.1875  -23.1892  -19.5560 C   0  0  0  0  0  0
  -24.7247  -21.5784  -20.2019 S   0  0  0  0  0  0
  -27.9690  -23.4418  -23.2342 O   0  0  0  0  0  0
  -32.9791  -23.0724  -26.3996 H   0  0  0  0  0  0
  -31.6717  -24.2525  -26.3105 H   0  0  0  0  0  0
  -32.5414  -23.7644  -24.8431 H   0  0  0  0  0  0
  -30.3078  -19.9086  -22.4712 H   0  0  0  0  0  0
  -29.1334  -17.6730  -27.3683 H   0  0  0  0  0  0
  -29.9656  -16.5713  -26.4120 H   0  0  0  0  0  0
  -27.6449  -20.3209  -23.5974 H   0  0  0  0  0  0
  -25.4767  -20.3274  -22.7845 H   0  0  0  0  0  0
  -26.5215  -22.7803  -21.2944 H   0  0  0  0  0  0
  -23.1966  -25.0208  -20.2992 H   0  0  0  0  0  0
  -25.0029  -23.6346  -18.9847 H   0  0  0  0  0  0
  -23.3599  -23.0242  -18.8654 H   0  0  0  0  0  0
  1  2  1  0  0  0
  1 26  1  0  0  0
  1 27  1  0  0  0
  1 28  1  0  0  0
  2  3  1  0  0  0
  3  4  2  3  0  0
  4  5  1  0  0  0
  4 11  1  0  0  0
  5 10  1  0  0  0
  5  6  2  0  0  0
  6  7  1  0  0  0
  6 29  1  0  0  0
  7  8  1  0  0  0
  8  9  1  0  0  0
  8 10  2  0  0  0
  9 30  1  0  0  0
  9 31  1  0  0  0
 11 12  1  0  0  0
 11 25  2  0  0  0
 12 13  1  0  0  0
 12 32  1  0  0  0
 13 16  1  0  0  0
 13 14  1  0  0  0
 13 33  1  0  0  0
 14 24  1  0  0  0
 14 15  1  0  0  0
 14 34  1  0  0  0
 15 16  1  0  0  0
 15 18  1  0  0  0
 16 17  2  0  0  0
 18 19  1  0  0  0
 18 22  2  0  0  0
 19 20  1  0  0  0
 19 21  2  0  0  0
 22 23  1  0  0  0
 22 35  1  0  0  0
 23 24  1  0  0  0
 23 36  1  0  0  0
 23 37  1  0  0  0
M  CHG  1  20  -1
M  END
> <s_m_entry_id>
27640

> <s_m_entry_name>
data_maestro.5

> <s_m_Source_Path>
C:\Users\olshana1\Git\GramNeg-Accumulation\Gram Negative Permeation - OmpF

> <s_m_Source_File>
data_maestro.csv

> <i_m_Source_File_Index>
5

> <s_m_job_name>
glide-dock_Nicaido_neutral

> <s_i_glide_gridfile>
3POX-grid

> <i_i_glide_lignum>
5

> <i_i_glide_rotatable_bonds>
6

> <r_i_docking_score>
-4.35822824167705

> <r_i_glide_ligand_efficiency>
-0.174329129667082

> <r_i_glide_ligand_efficiency_sa>
-0.509741466886826

> <r_i_glide_ligand_efficiency_ln>
-1.03303069883864

> <r_i_glide_gscore>
-4.35822824167705

> <r_i_glide_lipo>
0

> <r_i_glide_hbond>
-0.746567640987886

> <r_i_glide_metal>
0

> <r_i_glide_rewards>
-0.784613465043532

> <r_i_glide_evdw>
-22.434591293335

> <r_i_glide_ecoul>
-11.2668190002441

> <r_i_glide_erotb>
0.664075194683877

> <r_i_glide_esite>
-0.679369915626134

> <r_i_glide_emodel>
-51.6696583331408

> <r_i_glide_energy>
-33.7014102935791

> <r_i_glide_einternal>
6.00676870346069

> <i_i_glide_confnum>
23

> <i_i_glide_posenum>
97

> <r_i_glide_eff_state_penalty>
0

> <r_glide_res:A132_vdw>
-2.11128420039688

> <r_glide_res:A132_coul>
-33.7420778092036

> <r_glide_res:A132_hbond>
0

> <r_glide_res:A132_dist>
2.70732561806234

> <r_glide_res:A132_Eint>
-35.8533620096005

> <r_glide_res:A117_vdw>
-4.06324546372805

> <r_glide_res:A117_coul>
13.39921873981

> <r_glide_res:A117_hbond>
0

> <r_glide_res:A117_dist>
2.54875836556079

> <r_glide_res:A117_Eint>
9.33597327608198

> <r_glide_res:A113_vdw>
-0.770789584399844

> <r_glide_res:A113_coul>
12.7634359462357

> <r_glide_res:A113_hbond>
0

> <r_glide_res:A113_dist>
3.85805753720813

> <r_glide_res:A113_Eint>
11.9926463618359

> <r_glide_res:A82_vdw>
-1.67994314715906

> <r_glide_res:A82_coul>
-46.4058081760992

> <r_glide_res:A82_hbond>
-0.233545388939874

> <r_glide_res:A82_dist>
2.02158382764091

> <r_glide_res:A82_Eint>
-48.3192967121981

> <r_glide_res:A42_vdw>
-2.40134563644517

> <r_glide_res:A42_coul>
-35.7613619252803

> <r_glide_res:A42_hbond>
0

> <r_glide_res:A42_dist>
2.27089348386818

> <r_glide_res:A42_Eint>
-38.1627075617254

> <r_glide_res:A16_vdw>
-1.52143397554155

> <r_glide_res:A16_coul>
-24.3449002488151

> <r_glide_res:A16_hbond>
0

> <r_glide_res:A16_dist>
2.84955567755338

> <r_glide_res:A16_Eint>
-25.8663342243566

> <s_m_source_file>
ligprep_Nicaido_neutral.maegz

> <i_m_source_file_index>
5

> <i_lp_mmshare_version>
58128

> <i_f3d_flags>
0

> <s_lp_Force_Field>
S-OPLS

> <r_lp_Energy>
52.616387

> <b_lp_Chiralities_Consistent>
1

> <s_lp_Variant>
Ceftizoxime-1

> <s_epik_input>
W05IMl1jKG4xKXNbY0hdYzEvQyg9TlxPW0NIM10pQyg9TylbTkhdW0NAQEhdMkMoPU8pTihbQ0BIXTIzKUMoQyg9TylbT0hdKT1bQ0hdW0NIMl1TMw==

> <s_epik_cmdline>
J2VwaWtfcHl0aG9uJywgJy1waHQnLCAnMC4wJywgJy1waCcsICc3LjQnLCAnLW50JywgJy1tYScsICc1MDAnLCAnLWltYWUnLCAnPGluZmlsZS5tYWU+JywgJy1vbWFlJywgJzxvdXRmaWxlLm1hZT4n

> <r_lp_tautomer_probability>
1

> <r_epik_Ionization_Penalty>
  0.0005

> <r_epik_Ionization_Penalty_Charging>
  0.0000

> <r_epik_Ionization_Penalty_Neutral>
  0.0005

> <r_epik_State_Penalty>
  0.0000

> <r_epik_Charging_Adjusted_Penalty>
4.86746471452517e-05

> <i_epik_Tot_Q>
-1

> <i_epik_Tot_abs_Q>
1

> <s_epik_Chemistry_Notes>
This compound has an imine and may undergo hydrolysis. This compound contains an acetal/aminal-like group ( X-CH(R)-Y where X, Y are N, S, or O) that may be acid/base labile, releasing an aldehyde.

> <s_m_subgroup_title>
glide-dock_Nicaido_neutral_pv1

> <s_m_subgroupid>
glide-dock_Nicaido_neutral_pv1

> <b_m_subgroup_collapsed>
0

$$$$
Penicillin N
                    3D
 Schrodinger Suite 2022-2.
 44 45  0  0  1  0            999 V2000
  -21.6446  -23.0758  -20.3577 C   0  0  0  0  0  0
  -21.8984  -24.4176  -19.6424 C   0  0  0  0  0  0
  -21.5828  -25.5633  -20.6273 C   0  0  0  0  0  0
  -21.0986  -24.4480  -18.2887 C   0  0  2  0  0  0
  -20.6042  -25.8271  -17.8019 C   0  0  0  0  0  0
  -21.1690  -26.3495  -16.8135 O   0  5  0  0  0  0
  -19.6426  -26.3495  -18.4144 O   0  0  0  0  0  0
  -22.0527  -23.8942  -17.3484 N   0  0  0  0  0  0
  -23.4799  -24.1377  -17.4031 C   0  0  1  0  0  0
  -23.6766  -22.7990  -16.6616 C   0  0  2  0  0  0
  -24.2827  -21.7587  -17.4844 N   0  0  0  0  0  0
  -25.5502  -21.7889  -17.9117 C   0  0  0  0  0  0
  -25.9923  -20.6439  -18.8300 C   0  0  0  0  0  0
  -26.7124  -21.1169  -20.1106 C   0  0  0  0  0  0
  -28.1666  -21.5760  -19.8699 C   0  0  0  0  0  0
  -28.9573  -22.0006  -21.1308 C   0  0  2  0  0  0
  -30.3949  -21.9498  -20.8134 N   0  3  0  0  0  0
  -28.6039  -23.4058  -21.6871 C   0  0  0  0  0  0
  -29.4163  -23.9485  -22.4743 O   0  5  0  0  0  0
  -27.5259  -23.9495  -21.3569 O   0  0  0  0  0  0
  -26.3221  -22.6990  -17.6133 O   0  0  0  0  0  0
  -22.1450  -22.7198  -16.6481 C   0  0  0  0  0  0
  -21.3043  -21.9236  -16.2935 O   0  0  0  0  0  0
  -23.6760  -24.4834  -19.1882 S   0  0  0  0  0  0
  -20.5983  -22.9748  -20.6498 H   0  0  0  0  0  0
  -22.2501  -22.9819  -21.2599 H   0  0  0  0  0  0
  -21.8879  -22.2281  -19.7155 H   0  0  0  0  0  0
  -20.5245  -25.5787  -20.8915 H   0  0  0  0  0  0
  -21.8395  -26.5378  -20.2095 H   0  0  0  0  0  0
  -22.1504  -25.4531  -21.5515 H   0  0  0  0  0  0
  -20.2235  -23.7974  -18.3438 H   0  0  0  0  0  0
  -23.7890  -24.9998  -16.8134 H   0  0  0  0  0  0
  -24.1422  -22.9182  -15.6816 H   0  0  0  0  0  0
  -23.6976  -20.9814  -17.7530 H   0  0  0  0  0  0
  -25.1158  -20.0602  -19.1150 H   0  0  0  0  0  0
  -26.6308  -19.9651  -18.2642 H   0  0  0  0  0  0
  -26.1244  -21.9045  -20.5812 H   0  0  0  0  0  0
  -26.7224  -20.2911  -20.8232 H   0  0  0  0  0  0
  -28.6900  -20.7456  -19.3910 H   0  0  0  0  0  0
  -28.2089  -22.3885  -19.1456 H   0  0  0  0  0  0
  -28.7804  -21.2749  -21.9252 H   0  0  0  0  0  0
  -30.9226  -22.3514  -21.5743 H   0  0  0  0  0  0
  -30.5709  -22.4625  -19.9555 H   0  0  0  0  0  0
  -30.6735  -20.9908  -20.6440 H   0  0  0  0  0  0
  1  2  1  0  0  0
  1 25  1  0  0  0
  1 26  1  0  0  0
  1 27  1  0  0  0
  2 24  1  0  0  0
  2  3  1  0  0  0
  2  4  1  0  0  0
  3 28  1  0  0  0
  3 29  1  0  0  0
  3 30  1  0  0  0
  4  5  1  0  0  0
  4  8  1  0  0  0
  4 31  1  0  0  0
  5  6  1  0  0  0
  5  7  2  0  0  0
  8 22  1  0  0  0
  8  9  1  0  0  0
  9 10  1  0  0  0
  9 24  1  0  0  0
  9 32  1  0  0  0
 10 11  1  0  0  0
 10 22  1  0  0  0
 10 33  1  0  0  0
 11 12  1  0  0  0
 11 34  1  0  0  0
 12 13  1  0  0  0
 12 21  2  0  0  0
 13 14  1  0  0  0
 13 35  1  0  0  0
 13 36  1  0  0  0
 14 15  1  0  0  0
 14 37  1  0  0  0
 14 38  1  0  0  0
 15 16  1  0  0  0
 15 39  1  0  0  0
 15 40  1  0  0  0
 16 17  1  0  0  0
 16 18  1  0  0  0
 16 41  1  0  0  0
 17 42  1  0  0  0
 17 43  1  0  0  0
 17 44  1  0  0  0
 18 19  1  0  0  0
 18 20  2  0  0  0
 22 23  2  0  0  0
M  CHG  3   6  -1  17   1  19  -1
M  END
> <s_m_entry_id>
27641

> <s_m_entry_name>
data_maestro.26

> <s_m_Source_Path>
C:\Users\olshana1\Git\GramNeg-Accumulation\Gram Negative Permeation - OmpF

> <s_m_Source_File>
data_maestro.csv

> <i_m_Source_File_Index>
26

> <s_m_job_name>
glide-dock_Nicaido_neutral

> <s_i_glide_gridfile>
3POX-grid

> <i_i_glide_lignum>
33

> <i_i_glide_rotatable_bonds>
8

> <r_i_docking_score>
-4.35480916774848

> <r_i_glide_ligand_efficiency>
-0.18145038198952

> <r_i_glide_ligand_efficiency_sa>
-0.523393470358543

> <r_i_glide_ligand_efficiency_ln>
-1.04230566301388

> <r_i_glide_gscore>
-4.35480916774848

> <r_i_glide_lipo>
0

> <r_i_glide_hbond>
-1.02208813239118

> <r_i_glide_metal>
0

> <r_i_glide_rewards>
-0.965512092186663

> <r_i_glide_evdw>
-19.8556537628174

> <r_i_glide_ecoul>
-12.486554145813

> <r_i_glide_erotb>
0.894795809723686

> <r_i_glide_esite>
-0.396238942881504

> <r_i_glide_emodel>
-56.305227638807

> <r_i_glide_energy>
-32.3422079086304

> <r_i_glide_einternal>
3.91960167884827

> <i_i_glide_confnum>
120

> <i_i_glide_posenum>
215

> <r_i_glide_eff_state_penalty>
0

> <r_glide_res:A132_vdw>
-0.842833856210739

> <r_glide_res:A132_coul>
-43.2903623683608

> <r_glide_res:A132_hbond>
-0.179430816239498

> <r_glide_res:A132_dist>
2.07175564199623

> <r_glide_res:A132_Eint>
-44.312627040811

> <r_glide_res:A117_vdw>
-0.326636531347493

> <r_glide_res:A117_coul>
10.8766867273561

> <r_glide_res:A117_hbond>
0

> <r_glide_res:A117_dist>
3.98175644370146

> <r_glide_res:A117_Eint>
10.5500501960086

> <r_glide_res:A113_vdw>
0.0480095738064752

> <r_glide_res:A113_coul>
-14.6543811785094

> <r_glide_res:A113_hbond>
-0.203384559383412

> <r_glide_res:A113_dist>
1.98563540265458

> <r_glide_res:A113_Eint>
-14.8097561640863

> <r_glide_res:A82_vdw>
-0.918461727438738

> <r_glide_res:A82_coul>
-38.3328211361099

> <r_glide_res:A82_hbond>
-0.2

> <r_glide_res:A82_dist>
2.02568660643755

> <r_glide_res:A82_Eint>
-39.4512828635486

> <r_glide_res:A42_vdw>
-0.362943451362914

> <r_glide_res:A42_coul>
-20.6071197859996

> <r_glide_res:A42_hbond>
0

> <r_glide_res:A42_dist>
4.09634908046193

> <r_glide_res:A42_Eint>
-20.9700632373625

> <r_glide_res:A16_vdw>
-0.0507967769061915

> <r_glide_res:A16_coul>
-10.8868637490873

> <r_glide_res:A16_hbond>
0

> <r_glide_res:A16_dist>
6.35672355952942

> <r_glide_res:A16_Eint>
-10.9376605259935

> <s_m_source_file>
ligprep_Nicaido_neutral.maegz

> <i_m_source_file_index>
26

> <i_lp_mmshare_version>
58128

> <i_f3d_flags>
0

> <s_lp_Force_Field>
S-OPLS

> <r_lp_Energy>
12.253328

> <b_lp_Chiralities_Consistent>
1

> <s_lp_Variant>
Penicillin N-1

> <s_epik_input>
W09IXUMoPU8pW0NASF0xQyhbQ0gzXSkoW0NIM10pU1tDQEBIXShOMTIpW0NAQEhdKEMyPU8pW05IXUMoPU8pW0NIMl1bQ0gyXVtDSDJdW0NASF0oW05IMl0pQyg9TylbT0hd

> <s_epik_cmdline>
J2VwaWtfcHl0aG9uJywgJy1waHQnLCAnMC4wJywgJy1waCcsICc3LjQnLCAnLW50JywgJy1tYScsICc1MDAnLCAnLWltYWUnLCAnPGluZmlsZS5tYWU+JywgJy1vbWFlJywgJzxvdXRmaWxlLm1hZT4n

> <r_lp_tautomer_probability>
1

> <r_epik_Ionization_Penalty>
  0.0034

> <r_epik_Ionization_Penalty_Charging>
  0.0034

> <r_epik_Ionization_Penalty_Neutral>
  0.0000

> <r_epik_State_Penalty>
  0.0000

> <r_epik_Charging_Adjusted_Penalty>
0.0034368723547391

> <i_epik_Tot_Q>
-1

> <i_epik_Tot_abs_Q>
3

> <s_epik_Chemistry_Notes>
This compound contains an acetal/aminal-like group ( X-CH(R)-Y where X, Y are N, S, or O) that may be acid/base labile, releasing an aldehyde.

> <s_m_subgroup_title>
glide-dock_Nicaido_neutral_pv1

> <s_m_subgroupid>
glide-dock_Nicaido_neutral_pv1

> <b_m_subgroup_collapsed>
0

$$$$
Carbenicillin
                    3D
 Schrodinger Suite 2022-2.
 42 44  0  0  1  0            999 V2000
  -21.6043  -23.1999  -23.3615 C   0  0  0  0  0  0
  -22.3467  -22.9360  -24.6881 C   0  0  0  0  0  0
  -23.7487  -23.6272  -24.8089 C   0  0  2  0  0  0
  -24.6636  -22.6054  -24.3617 N   0  0  0  0  0  0
  -24.5084  -21.2286  -24.7852 C   0  0  2  0  0  0
  -22.6914  -21.1289  -24.7719 S   0  0  0  0  0  0
  -25.4329  -20.8111  -23.6356 C   0  0  2  0  0  0
  -25.4712  -22.3226  -23.2841 C   0  0  0  0  0  0
  -25.9654  -23.0311  -22.4317 O   0  0  0  0  0  0
  -26.6832  -20.1996  -24.1329 N   0  0  0  0  0  0
  -27.6824  -20.7968  -24.8158 C   0  0  0  0  0  0
  -28.9896  -19.9833  -25.0275 C   0  0  2  0  0  0
  -29.6812  -19.5928  -23.7049 C   0  0  0  0  0  0
  -29.1973  -20.0081  -22.4370 C   0  0  0  0  0  0
  -29.7673  -19.5225  -21.2545 C   0  0  0  0  0  0
  -30.9057  -18.7021  -21.3046 C   0  0  0  0  0  0
  -31.4486  -18.3491  -22.5451 C   0  0  0  0  0  0
  -30.8069  -18.7342  -23.7314 C   0  0  0  0  0  0
  -30.0130  -20.6726  -25.9959 C   0  0  0  0  0  0
  -29.9077  -21.8612  -26.3959 O   0  5  0  0  0  0
  -30.9393  -19.9505  -26.4135 O   0  0  0  0  0  0
  -27.5690  -21.9495  -25.2131 O   0  0  0  0  0  0
  -23.9682  -25.0504  -24.2411 C   0  0  0  0  0  0
  -23.7013  -25.2851  -23.0412 O   0  5  0  0  0  0
  -24.3686  -25.9267  -25.0384 O   0  0  0  0  0  0
  -21.4622  -23.3129  -25.8820 C   0  0  0  0  0  0
  -21.2943  -24.2397  -23.2633 H   0  0  0  0  0  0
  -20.7037  -22.5889  -23.2879 H   0  0  0  0  0  0
  -22.2320  -22.9565  -22.5028 H   0  0  0  0  0  0
  -23.9691  -23.7131  -25.8730 H   0  0  0  0  0  0
  -24.9043  -21.0403  -25.7847 H   0  0  0  0  0  0
  -24.9194  -20.1931  -22.8982 H   0  0  0  0  0  0
  -26.8428  -19.2415  -23.8513 H   0  0  0  0  0  0
  -28.6909  -19.0523  -25.5126 H   0  0  0  0  0  0
  -28.3573  -20.6737  -22.3156 H   0  0  0  0  0  0
  -29.3345  -19.8046  -20.3077 H   0  0  0  0  0  0
  -31.3607  -18.3494  -20.3924 H   0  0  0  0  0  0
  -32.3192  -17.7088  -22.5884 H   0  0  0  0  0  0
  -31.2009  -18.3580  -24.6618 H   0  0  0  0  0  0
  -21.2334  -24.3727  -25.9011 H   0  0  0  0  0  0
  -21.9693  -23.0701  -26.8136 H   0  0  0  0  0  0
  -20.5200  -22.7650  -25.8765 H   0  0  0  0  0  0
  1  2  1  0  0  0
  1 27  1  0  0  0
  1 28  1  0  0  0
  1 29  1  0  0  0
  2  6  1  0  0  0
  2  3  1  0  0  0
  2 26  1  0  0  0
  3  4  1  0  0  0
  3 23  1  0  0  0
  3 30  1  0  0  0
  4  8  1  0  0  0
  4  5  1  0  0  0
  5  6  1  0  0  0
  5  7  1  0  0  0
  5 31  1  0  0  0
  7  8  1  0  0  0
  7 10  1  0  0  0
  7 32  1  0  0  0
  8  9  2  0  0  0
 10 11  1  0  0  0
 10 33  1  0  0  0
 11 12  1  0  0  0
 11 22  2  0  0  0
 12 13  1  0  0  0
 12 19  1  0  0  0
 12 34  1  0  0  0
 13 18  1  0  0  0
 13 14  2  0  0  0
 14 15  1  0  0  0
 14 35  1  0  0  0
 15 16  2  0  0  0
 15 36  1  0  0  0
 16 17  1  0  0  0
 16 37  1  0  0  0
 17 18  2  0  0  0
 17 38  1  0  0  0
 18 39  1  0  0  0
 19 20  1  0  0  0
 19 21  2  0  0  0
 23 24  1  0  0  0
 23 25  2  0  0  0
 26 40  1  0  0  0
 26 41  1  0  0  0
 26 42  1  0  0  0
M  CHG  2  20  -1  24  -1
M  END
> <s_m_entry_id>
27642

> <s_m_entry_name>
data_maestro.24

> <s_m_Source_Path>
C:\Users\olshana1\Git\GramNeg-Accumulation\Gram Negative Permeation - OmpF

> <s_m_Source_File>
data_maestro.csv

> <i_m_Source_File_Index>
24

> <s_m_job_name>
glide-dock_Nicaido_neutral

> <s_i_glide_gridfile>
3POX-grid

> <i_i_glide_lignum>
31

> <i_i_glide_rotatable_bonds>
6

> <r_i_docking_score>
-4.34639310116613

> <r_i_glide_ligand_efficiency>
-0.167168965429467

> <r_i_glide_ligand_efficiency_sa>
-0.495237402306679

> <r_i_glide_ligand_efficiency_ln>
-1.02073615812987

> <r_i_glide_gscore>
-4.34639310116613

> <r_i_glide_lipo>
0

> <r_i_glide_hbond>
-0.761557733870611

> <r_i_glide_metal>
0

> <r_i_glide_rewards>
-0.841588830634071

> <r_i_glide_evdw>
-17.3341083526611

> <r_i_glide_ecoul>
-12.0716133117676

> <r_i_glide_erotb>
0.409918473255716

> <r_i_glide_esite>
-0.475717595518975

> <r_i_glide_emodel>
-47.1680591035646

> <r_i_glide_energy>
-29.4057216644287

> <r_i_glide_einternal>
14.1082630157471

> <i_i_glide_confnum>
7

> <i_i_glide_posenum>
350

> <r_i_glide_eff_state_penalty>
0

> <r_glide_res:A132_vdw>
-1.32556315711705

> <r_glide_res:A132_coul>
-57.2079721339882

> <r_glide_res:A132_hbond>
0

> <r_glide_res:A132_dist>
2.97577613558326

> <r_glide_res:A132_Eint>
-58.5335352911052

> <r_glide_res:A117_vdw>
-4.04966881212296

> <r_glide_res:A117_coul>
38.6767520776288

> <r_glide_res:A117_hbond>
0

> <r_glide_res:A117_dist>
2.83713046037368

> <r_glide_res:A117_Eint>
34.6270832655058

> <r_glide_res:A113_vdw>
0.602732226264232

> <r_glide_res:A113_coul>
37.3421983669393

> <r_glide_res:A113_hbond>
0

> <r_glide_res:A113_dist>
2.26725152480675

> <r_glide_res:A113_Eint>
37.9449305932035

> <r_glide_res:A82_vdw>
-1.36612800152723

> <r_glide_res:A82_coul>
-74.0288450671905

> <r_glide_res:A82_hbond>
-0.2

> <r_glide_res:A82_dist>
1.87085555386454

> <r_glide_res:A82_Eint>
-75.5949730687177

> <r_glide_res:A42_vdw>
1.20865164291827

> <r_glide_res:A42_coul>
-79.2473072193354

> <r_glide_res:A42_hbond>
-0.307585515574889

> <r_glide_res:A42_dist>
1.58876016318439

> <r_glide_res:A42_Eint>
-78.346241091992

> <r_glide_res:A16_vdw>
1.83545166156622

> <r_glide_res:A16_coul>
-76.4213797727403

> <r_glide_res:A16_hbond>
-0.253972218295722

> <r_glide_res:A16_dist>
1.89996143558014

> <r_glide_res:A16_Eint>
-74.8399003294698

> <s_m_source_file>
ligprep_Nicaido_neutral.maegz

> <i_m_source_file_index>
24

> <i_lp_mmshare_version>
58128

> <i_f3d_flags>
0

> <s_lp_Force_Field>
S-OPLS

> <r_lp_Energy>
37.112724

> <b_lp_Chiralities_Consistent>
1

> <s_lp_Variant>
Carbenicillin-1

> <s_epik_input>
W09IXUMoPU8pW0NAQEhdMUMoW0NIM10pKFtDSDNdKVNbQ0BASF0oTjEyKVtDQEhdKEMyPU8pW05IXUMoPU8pW0NAQEhdKEMoPU8pW09IXSljM1tjSF1bY0hdW2NIXVtjSF1bY0hdMw==

> <s_epik_cmdline>
J2VwaWtfcHl0aG9uJywgJy1waHQnLCAnMC4wJywgJy1waCcsICc3LjQnLCAnLW50JywgJy1tYScsICc1MDAnLCAnLWltYWUnLCAnPGluZmlsZS5tYWU+JywgJy1vbWFlJywgJzxvdXRmaWxlLm1hZT4n

> <r_lp_tautomer_probability>
1

> <r_epik_Ionization_Penalty>
  0.0000

> <r_epik_Ionization_Penalty_Charging>
  0.0000

> <r_epik_Ionization_Penalty_Neutral>
  0.0000

> <r_epik_State_Penalty>
  0.0000

> <r_epik_Charging_Adjusted_Penalty>
4.98035685666923e-05

> <i_epik_Tot_Q>
-2

> <i_epik_Tot_abs_Q>
2

> <s_epik_Chemistry_Notes>
This compound contains an acetal/aminal-like group ( X-CH(R)-Y where X, Y are N, S, or O) that may be acid/base labile, releasing an aldehyde.

> <s_m_subgroup_title>
glide-dock_Nicaido_neutral_pv1

> <s_m_subgroupid>
glide-dock_Nicaido_neutral_pv1

> <b_m_subgroup_collapsed>
0

$$$$
Cefoxitin
                    3D
 Schrodinger Suite 2022-2.
 44 46  0  0  1  0            999 V2000
  -24.6266  -19.3104  -24.5931 C   0  0  0  0  0  0
  -25.6980  -18.8994  -23.7480 O   0  0  0  0  0  0
  -27.0273  -19.2772  -24.1270 C   0  0  2  0  0  0
  -27.9034  -19.5568  -22.8856 C   0  0  1  0  0  0
  -27.9352  -20.9437  -23.3135 N   0  0  0  0  0  0
  -27.1227  -20.7807  -24.4111 C   0  0  0  0  0  0
  -26.6489  -21.5496  -25.2134 O   0  0  0  0  0  0
  -28.5387  -21.9763  -22.5896 C   0  0  0  0  0  0
  -28.8635  -23.2637  -23.4220 C   0  0  0  0  0  0
  -29.1390  -23.1419  -24.6409 O   0  5  0  0  0  0
  -28.7689  -24.3496  -22.8132 O   0  0  0  0  0  0
  -28.8055  -21.8493  -21.2622 C   0  0  0  0  0  0
  -28.5243  -20.5776  -20.4654 C   0  0  0  0  0  0
  -27.2351  -19.5496  -21.1915 S   0  0  0  0  0  0
  -29.4674  -22.9303  -20.4244 C   0  0  0  0  0  0
  -28.5267  -23.9050  -19.9645 O   0  0  0  0  0  0
  -27.8102  -23.8191  -18.8134 C   0  0  0  0  0  0
  -28.3689  -22.9692  -17.8789 N   0  0  0  0  0  0
  -26.7932  -24.4876  -18.6469 O   0  0  0  0  0  0
  -27.6468  -18.4433  -25.1779 N   0  0  0  0  0  0
  -28.8021  -18.6307  -25.8497 C   0  0  0  0  0  0
  -29.1690  -17.5498  -26.8762 C   0  0  0  0  0  0
  -30.5503  -17.7085  -27.4418 C   0  0  0  0  0  0
  -30.8976  -17.9467  -28.7466 C   0  0  0  0  0  0
  -32.3091  -18.0067  -28.9518 C   0  0  0  0  0  0
  -33.0210  -17.8256  -27.7973 C   0  0  0  0  0  0
  -31.9717  -17.5496  -26.4357 S   0  0  0  0  0  0
  -29.5326  -19.6122  -25.7015 O   0  0  0  0  0  0
  -23.7264  -18.7496  -24.3434 H   0  0  0  0  0  0
  -24.3878  -20.3638  -24.4479 H   0  0  0  0  0  0
  -24.8533  -19.1496  -25.6479 H   0  0  0  0  0  0
  -28.8938  -19.0995  -22.9237 H   0  0  0  0  0  0
  -29.4446  -19.9968  -20.4134 H   0  0  0  0  0  0
  -28.2286  -20.8075  -19.4434 H   0  0  0  0  0  0
  -29.9689  -22.4378  -19.6134 H   0  0  0  0  0  0
  -30.2445  -23.4303  -21.0017 H   0  0  0  0  0  0
  -29.2769  -22.5391  -18.0627 H   0  0  0  0  0  0
  -27.8813  -22.8512  -17.0017 H   0  0  0  0  0  0
  -27.1089  -17.6234  -25.4588 H   0  0  0  0  0  0
  -28.4313  -17.5643  -27.6785 H   0  0  0  0  0  0
  -29.0805  -16.5700  -26.4135 H   0  0  0  0  0  0
  -30.1893  -18.0469  -29.5564 H   0  0  0  0  0  0
  -32.7477  -18.1707  -29.9256 H   0  0  0  0  0  0
  -34.0923  -17.8180  -27.6606 H   0  0  0  0  0  0
  1  2  1  0  0  0
  1 29  1  0  0  0
  1 30  1  0  0  0
  1 31  1  0  0  0
  2  3  1  0  0  0
  3  6  1  0  0  0
  3  4  1  0  0  0
  3 20  1  0  0  0
  4 14  1  0  0  0
  4  5  1  0  0  0
  4 32  1  0  0  0
  5  6  1  0  0  0
  5  8  1  0  0  0
  6  7  2  0  0  0
  8  9  1  0  0  0
  8 12  2  0  0  0
  9 10  1  0  0  0
  9 11  2  0  0  0
 12 13  1  0  0  0
 12 15  1  0  0  0
 13 14  1  0  0  0
 13 33  1  0  0  0
 13 34  1  0  0  0
 15 16  1  0  0  0
 15 35  1  0  0  0
 15 36  1  0  0  0
 16 17  1  0  0  0
 17 18  1  0  0  0
 17 19  2  0  0  0
 18 37  1  0  0  0
 18 38  1  0  0  0
 20 21  1  0  0  0
 20 39  1  0  0  0
 21 22  1  0  0  0
 21 28  2  0  0  0
 22 23  1  0  0  0
 22 40  1  0  0  0
 22 41  1  0  0  0
 23 27  1  0  0  0
 23 24  2  0  0  0
 24 25  1  0  0  0
 24 42  1  0  0  0
 25 26  2  0  0  0
 25 43  1  0  0  0
 26 27  1  0  0  0
 26 44  1  0  0  0
M  CHG  1  10  -1
M  END
> <s_m_entry_id>
27643

> <s_m_entry_name>
data_maestro.4

> <s_m_Source_Path>
C:\Users\olshana1\Git\GramNeg-Accumulation\Gram Negative Permeation - OmpF

> <s_m_Source_File>
data_maestro.csv

> <i_m_Source_File_Index>
4

> <s_m_job_name>
glide-dock_Nicaido_neutral

> <s_i_glide_gridfile>
3POX-grid

> <i_i_glide_lignum>
4

> <i_i_glide_rotatable_bonds>
9

> <r_i_docking_score>
-4.34575485908124

> <r_i_glide_ligand_efficiency>
-0.155205530681473

> <r_i_glide_ligand_efficiency_sa>
-0.471295402317986

> <r_i_glide_ligand_efficiency_ln>
-1.00312781838305

> <r_i_glide_gscore>
-4.34575485908124

> <r_i_glide_lipo>
0

> <r_i_glide_hbond>
-0.962802868924353

> <r_i_glide_metal>
0

> <r_i_glide_rewards>
0.476720341472265

> <r_i_glide_evdw>
-23.5284175872803

> <r_i_glide_ecoul>
-16.7670021057129

> <r_i_glide_erotb>
0.545654768997296

> <r_i_glide_esite>
-0.713855905405502

> <r_i_glide_emodel>
-52.1483835192659

> <r_i_glide_energy>
-40.2954196929932

> <r_i_glide_einternal>
17.5627593994141

> <i_i_glide_confnum>
20

> <i_i_glide_posenum>
238

> <r_i_glide_eff_state_penalty>
0

> <r_glide_res:A132_vdw>
-1.66849441006183

> <r_glide_res:A132_coul>
-41.6996205935652

> <r_glide_res:A132_hbond>
-0.152

> <r_glide_res:A132_dist>
1.89412763263111

> <r_glide_res:A132_Eint>
-43.520115003627

> <r_glide_res:A117_vdw>
-1.1931894513897

> <r_glide_res:A117_coul>
9.55510399374809

> <r_glide_res:A117_hbond>
-0.152

> <r_glide_res:A117_dist>
1.75206712657102

> <r_glide_res:A117_Eint>
8.20991454235839

> <r_glide_res:A113_vdw>
-0.800804578509136

> <r_glide_res:A113_coul>
11.1274993068365

> <r_glide_res:A113_hbond>
-0.152

> <r_glide_res:A113_dist>
1.99391960102817

> <r_glide_res:A113_Eint>
10.1746947283273

> <r_glide_res:A82_vdw>
4.93272421309015

> <r_glide_res:A82_coul>
-55.2300966071787

> <r_glide_res:A82_hbond>
-0.314802868924353

> <r_glide_res:A82_dist>
1.66828159697262

> <r_glide_res:A82_Eint>
-50.6121752630129

> <r_glide_res:A42_vdw>
0.989519502288273

> <r_glide_res:A42_coul>
-52.1924303475472

> <r_glide_res:A42_hbond>
-0.352

> <r_glide_res:A42_dist>
1.74566967578701

> <r_glide_res:A42_Eint>
-51.5549108452589

> <r_glide_res:A16_vdw>
-1.33640393370504

> <r_glide_res:A16_coul>
-33.3498796158284

> <r_glide_res:A16_hbond>
0

> <r_glide_res:A16_dist>
2.11064850152042

> <r_glide_res:A16_Eint>
-34.6862835495334

> <s_m_source_file>
ligprep_Nicaido_neutral.maegz

> <i_m_source_file_index>
4

> <i_lp_mmshare_version>
58128

> <i_f3d_flags>
0

> <s_lp_Force_Field>
S-OPLS

> <r_lp_Energy>
27.517474

> <b_lp_Chiralities_Consistent>
1

> <s_lp_Variant>
Cefoxitin-1

> <s_epik_input>
czFbY0hdW2NIXVtjSF1jMVtDSDJdQyg9TylbTkhdW0NAXTIoT1tDSDNdKUMoPU8pTihbQ0BIXTIzKUMoQyg9TylbT0hdKT1DKFtDSDJdUzMpW0NIMl1PQyg9TylbTkgyXQ==

> <s_epik_cmdline>
J2VwaWtfcHl0aG9uJywgJy1waHQnLCAnMC4wJywgJy1waCcsICc3LjQnLCAnLW50JywgJy1tYScsICc1MDAnLCAnLWltYWUnLCAnPGluZmlsZS5tYWU+JywgJy1vbWFlJywgJzxvdXRmaWxlLm1hZT4n

> <r_lp_tautomer_probability>
1

> <r_epik_Ionization_Penalty>
  0.0000

> <r_epik_Ionization_Penalty_Charging>
  0.0000

> <r_epik_Ionization_Penalty_Neutral>
  0.0000

> <r_epik_State_Penalty>
  0.0000

> <r_epik_Charging_Adjusted_Penalty>
8.89144247208744e-06

> <i_epik_Tot_Q>
-1

> <i_epik_Tot_abs_Q>
1

> <s_epik_Chemistry_Notes>
This compound has an ester and may undergo hydrolysis at high or low pH. This compound contains an acetal/aminal-like group ( X-CH(R)-Y where X, Y are N, S, or O) that may be acid/base labile, releasing an aldehyde.

> <s_m_subgroup_title>
glide-dock_Nicaido_neutral_pv1

> <s_m_subgroupid>
glide-dock_Nicaido_neutral_pv1

> <b_m_subgroup_collapsed>
0

$$$$
Cefazolin
                    3D
 Schrodinger Suite 2022-2.
 42 45  0  0  1  0            999 V2000
  -24.6522  -19.8224  -25.9957 C   0  0  0  0  0  0
  -24.9499  -20.4019  -24.6569 C   0  0  0  0  0  0
  -24.9649  -21.7192  -24.4131 N   0  0  0  0  0  0
  -25.2769  -22.0024  -23.0878 N   0  0  0  0  0  0
  -25.5051  -20.8889  -22.3796 C   0  0  0  0  0  0
  -25.3080  -19.3922  -23.2663 S   0  0  0  0  0  0
  -25.9429  -20.8553  -20.6793 S   0  0  0  0  0  0
  -27.5436  -21.7130  -20.7711 C   0  0  0  0  0  0
  -28.5491  -21.0961  -21.7504 C   0  0  0  0  0  0
  -29.0244  -21.7241  -22.8654 C   0  0  0  0  0  0
  -29.9835  -21.1234  -23.7064 N   0  0  0  0  0  0
  -30.8967  -20.1111  -23.2145 C   0  0  2  0  0  0
  -31.5359  -20.0830  -24.6130 C   0  0  2  0  0  0
  -30.5692  -21.2401  -24.9622 C   0  0  0  0  0  0
  -30.3689  -21.9642  -25.9167 O   0  0  0  0  0  0
  -31.2472  -18.8500  -25.3402 N   0  0  0  0  0  0
  -31.6691  -18.6102  -26.5879 C   0  0  0  0  0  0
  -31.2261  -17.3039  -27.2432 C   0  0  0  0  0  0
  -32.3735  -16.4815  -27.5780 N   0  0  0  0  0  0
  -33.1693  -15.7324  -26.8132 C   0  0  0  0  0  0
  -34.1218  -15.1512  -27.5236 N   0  0  0  0  0  0
  -33.8718  -15.5921  -28.8108 N   0  0  0  0  0  0
  -32.8375  -16.3852  -28.8488 N   0  0  0  0  0  0
  -32.3695  -19.4047  -27.2139 O   0  0  0  0  0  0
  -29.9174  -18.7440  -22.5532 S   0  0  0  0  0  0
  -28.9795  -19.6884  -21.3214 C   0  0  0  0  0  0
  -28.4927  -23.1111  -23.3590 C   0  0  0  0  0  0
  -28.5573  -24.0824  -22.5699 O   0  5  0  0  0  0
  -28.0588  -23.1492  -24.5292 O   0  0  0  0  0  0
  -24.4612  -20.6091  -26.7257 H   0  0  0  0  0  0
  -25.4961  -19.2205  -26.3324 H   0  0  0  0  0  0
  -23.7766  -19.1762  -25.9345 H   0  0  0  0  0  0
  -27.9918  -21.6955  -19.7767 H   0  0  0  0  0  0
  -27.3269  -22.7570  -20.9706 H   0  0  0  0  0  0
  -31.5628  -20.5227  -22.4522 H   0  0  0  0  0  0
  -32.5930  -20.3498  -24.5885 H   0  0  0  0  0  0
  -30.6651  -18.1705  -24.8666 H   0  0  0  0  0  0
  -30.6578  -17.5195  -28.1489 H   0  0  0  0  0  0
  -30.5647  -16.7499  -26.5808 H   0  0  0  0  0  0
  -33.0521  -15.6172  -25.7463 H   0  0  0  0  0  0
  -29.5667  -19.7742  -20.4133 H   0  0  0  0  0  0
  -28.1093  -19.0851  -21.0638 H   0  0  0  0  0  0
  1  2  1  0  0  0
  1 30  1  0  0  0
  1 31  1  0  0  0
  1 32  1  0  0  0
  2  6  1  0  0  0
  2  3  2  0  0  0
  3  4  1  0  0  0
  4  5  2  0  0  0
  5  6  1  0  0  0
  5  7  1  0  0  0
  7  8  1  0  0  0
  8  9  1  0  0  0
  8 33  1  0  0  0
  8 34  1  0  0  0
  9 26  1  0  0  0
  9 10  2  0  0  0
 10 11  1  0  0  0
 10 27  1  0  0  0
 11 14  1  0  0  0
 11 12  1  0  0  0
 12 13  1  0  0  0
 12 25  1  0  0  0
 12 35  1  0  0  0
 13 14  1  0  0  0
 13 16  1  0  0  0
 13 36  1  0  0  0
 14 15  2  0  0  0
 16 17  1  0  0  0
 16 37  1  0  0  0
 17 18  1  0  0  0
 17 24  2  0  0  0
 18 19  1  0  0  0
 18 38  1  0  0  0
 18 39  1  0  0  0
 19 23  1  0  0  0
 19 20  1  0  0  0
 20 21  2  0  0  0
 20 40  1  0  0  0
 21 22  1  0  0  0
 22 23  2  0  0  0
 25 26  1  0  0  0
 26 41  1  0  0  0
 26 42  1  0  0  0
 27 28  1  0  0  0
 27 29  2  0  0  0
M  CHG  1  28  -1
M  END
> <s_m_entry_id>
27644

> <s_m_entry_name>
data_maestro.2

> <s_m_Source_Path>
C:\Users\olshana1\Git\GramNeg-Accumulation\Gram Negative Permeation - OmpF

> <s_m_Source_File>
data_maestro.csv

> <i_m_Source_File_Index>
2

> <s_m_job_name>
glide-dock_Nicaido_neutral

> <s_i_glide_gridfile>
3POX-grid

> <i_i_glide_lignum>
2

> <i_i_glide_rotatable_bonds>
8

> <r_i_docking_score>
-4.3382400168795

> <r_i_glide_ligand_efficiency>
-0.149594483340672

> <r_i_glide_ligand_efficiency_sa>
-0.459601647681457

> <r_i_glide_ligand_efficiency_ln>
-0.99334695559035

> <r_i_glide_gscore>
-4.3382400168795

> <r_i_glide_lipo>
0

> <r_i_glide_hbond>
-0.698148355063596

> <r_i_glide_metal>
0

> <r_i_glide_rewards>
-0.317024174416432

> <r_i_glide_evdw>
-32.6014213562012

> <r_i_glide_ecoul>
-11.9382467269897

> <r_i_glide_erotb>
0.585623573400065

> <r_i_glide_esite>
-0.487882983941013

> <r_i_glide_emodel>
-67.6194534073565

> <r_i_glide_energy>
-44.5396680831909

> <r_i_glide_einternal>
2.1584837436676

> <i_i_glide_confnum>
176

> <i_i_glide_posenum>
174

> <r_i_glide_eff_state_penalty>
0

> <r_glide_res:A132_vdw>
-1.18360846761386

> <r_glide_res:A132_coul>
-33.832428231969

> <r_glide_res:A132_hbond>
0

> <r_glide_res:A132_dist>
2.64756710056789

> <r_glide_res:A132_Eint>
-35.0160366995829

> <r_glide_res:A117_vdw>
-5.49493214281513

> <r_glide_res:A117_coul>
13.4613503558003

> <r_glide_res:A117_hbond>
0

> <r_glide_res:A117_dist>
2.57360154583099

> <r_glide_res:A117_Eint>
7.96641821298515

> <r_glide_res:A113_vdw>
-1.70431693289813

> <r_glide_res:A113_coul>
18.3095451539163

> <r_glide_res:A113_hbond>
0

> <r_glide_res:A113_dist>
2.19968972503237

> <r_glide_res:A113_Eint>
16.6052282210182

> <r_glide_res:A82_vdw>
-0.710153321140024

> <r_glide_res:A82_coul>
-49.9995370159977

> <r_glide_res:A82_hbond>
-0.367196221282882

> <r_glide_res:A82_dist>
2.07840940970039

> <r_glide_res:A82_Eint>
-51.0768865584206

> <r_glide_res:A42_vdw>
-1.38445155920602

> <r_glide_res:A42_coul>
-50.2541151501871

> <r_glide_res:A42_hbond>
-0.267593061090457

> <r_glide_res:A42_dist>
2.03044990500822

> <r_glide_res:A42_Eint>
-51.9061597704836

> <r_glide_res:A16_vdw>
-1.12850948967482

> <r_glide_res:A16_coul>
-35.5167031388034

> <r_glide_res:A16_hbond>
-0.0633590726902567

> <r_glide_res:A16_dist>
2.34596885464511

> <r_glide_res:A16_Eint>
-36.7085717011685

> <s_m_source_file>
ligprep_Nicaido_neutral.maegz

> <i_m_source_file_index>
2

> <i_lp_mmshare_version>
58128

> <i_f3d_flags>
0

> <s_lp_Force_Field>
S-OPLS

> <r_lp_Energy>
37.420105

> <b_lp_Chiralities_Consistent>
1

> <s_lp_Variant>
Cefazolin-1

> <s_epik_input>
W0NIM11jMW5uYyhzMSlTW0NIMl1DKD1DMkMoPU8pW09IXSlbQ0gyXVNbQ0BIXShOMjMpW0NASF0oQzM9TylbTkhdQyg9TylbQ0gyXW40W2NIXW5ubjQ=

> <s_epik_cmdline>
J2VwaWtfcHl0aG9uJywgJy1waHQnLCAnMC4wJywgJy1waCcsICc3LjQnLCAnLW50JywgJy1tYScsICc1MDAnLCAnLWltYWUnLCAnPGluZmlsZS5tYWU+JywgJy1vbWFlJywgJzxvdXRmaWxlLm1hZT4n

> <r_lp_tautomer_probability>
1

> <r_epik_Ionization_Penalty>
  0.0000

> <r_epik_Ionization_Penalty_Charging>
  0.0000

> <r_epik_Ionization_Penalty_Neutral>
  0.0000

> <r_epik_State_Penalty>
  0.0000

> <r_epik_Charging_Adjusted_Penalty>
8.33047029083912e-06

> <i_epik_Tot_Q>
-1

> <i_epik_Tot_abs_Q>
1

> <s_epik_Chemistry_Notes>
This compound contains an acetal/aminal-like group ( X-CH(R)-Y where X, Y are N, S, or O) that may be acid/base labile, releasing an aldehyde.

> <s_m_subgroup_title>
glide-dock_Nicaido_neutral_pv1

> <s_m_subgroupid>
glide-dock_Nicaido_neutral_pv1

> <b_m_subgroup_collapsed>
0

$$$$
Cephalothin
                    3D
 Schrodinger Suite 2022-2.
 41 43  0  0  1  0            999 V2000
  -34.3857  -22.8944  -23.7257 C   0  0  0  0  0  0
  -32.9554  -23.0350  -23.2254 C   0  0  0  0  0  0
  -32.7690  -22.4081  -22.0496 O   0  0  0  0  0  0
  -31.5132  -22.4283  -21.3768 C   0  0  0  0  0  0
  -30.4449  -21.5932  -22.0818 C   0  0  0  0  0  0
  -29.2687  -22.0572  -22.5820 C   0  0  0  0  0  0
  -28.4247  -21.1445  -23.2307 N   0  0  0  0  0  0
  -28.0674  -19.8981  -22.5679 C   0  0  1  0  0  0
  -27.2007  -19.6051  -23.8138 C   0  0  2  0  0  0
  -27.3647  -21.1077  -24.1191 C   0  0  0  0  0  0
  -26.8372  -21.9495  -24.8133 O   0  0  0  0  0  0
  -25.8357  -19.1496  -23.5179 N   0  0  0  0  0  0
  -24.9085  -19.6804  -22.7031 C   0  0  0  0  0  0
  -23.7072  -18.7880  -22.3724 C   0  0  0  0  0  0
  -23.7326  -18.2613  -20.9621 C   0  0  0  0  0  0
  -24.7691  -18.2246  -20.0571 C   0  0  0  0  0  0
  -24.4176  -17.6229  -18.8130 C   0  0  0  0  0  0
  -23.1160  -17.2011  -18.7782 C   0  0  0  0  0  0
  -22.2920  -17.5498  -20.2741 S   0  0  0  0  0  0
  -24.9971  -20.7986  -22.1967 O   0  0  0  0  0  0
  -29.5690  -18.9178  -22.1807 S   0  0  0  0  0  0
  -30.8915  -20.1524  -22.3047 C   0  0  0  0  0  0
  -28.7603  -23.5496  -22.4686 C   0  0  0  0  0  0
  -27.5283  -23.7745  -22.4884 O   0  5  0  0  0  0
  -29.6201  -24.4490  -22.4134 O   0  0  0  0  0  0
  -32.1128  -23.6537  -23.8753 O   0  0  0  0  0  0
  -34.6487  -21.8417  -23.8259 H   0  0  0  0  0  0
  -34.5011  -23.3757  -24.6967 H   0  0  0  0  0  0
  -35.0769  -23.3596  -23.0235 H   0  0  0  0  0  0
  -31.2184  -23.4478  -21.1479 H   0  0  0  0  0  0
  -31.6807  -21.9568  -20.4134 H   0  0  0  0  0  0
  -27.5008  -20.0977  -21.6557 H   0  0  0  0  0  0
  -27.7147  -18.9483  -24.5173 H   0  0  0  0  0  0
  -25.6129  -18.2348  -23.8955 H   0  0  0  0  0  0
  -23.6622  -17.9512  -23.0717 H   0  0  0  0  0  0
  -22.7982  -19.3684  -22.5318 H   0  0  0  0  0  0
  -25.7689  -18.5942  -20.2381 H   0  0  0  0  0  0
  -25.1269  -17.5160  -18.0039 H   0  0  0  0  0  0
  -22.5992  -16.7036  -17.9692 H   0  0  0  0  0  0
  -31.3573  -20.0820  -23.2872 H   0  0  0  0  0  0
  -31.6511  -19.8774  -21.5714 H   0  0  0  0  0  0
  1  2  1  0  0  0
  1 27  1  0  0  0
  1 28  1  0  0  0
  1 29  1  0  0  0
  2  3  1  0  0  0
  2 26  2  0  0  0
  3  4  1  0  0  0
  4  5  1  0  0  0
  4 30  1  0  0  0
  4 31  1  0  0  0
  5 22  1  0  0  0
  5  6  2  0  0  0
  6  7  1  0  0  0
  6 23  1  0  0  0
  7 10  1  0  0  0
  7  8  1  0  0  0
  8  9  1  0  0  0
  8 21  1  0  0  0
  8 32  1  0  0  0
  9 10  1  0  0  0
  9 12  1  0  0  0
  9 33  1  0  0  0
 10 11  2  0  0  0
 12 13  1  0  0  0
 12 34  1  0  0  0
 13 14  1  0  0  0
 13 20  2  0  0  0
 14 15  1  0  0  0
 14 35  1  0  0  0
 14 36  1  0  0  0
 15 19  1  0  0  0
 15 16  2  0  0  0
 16 17  1  0  0  0
 16 37  1  0  0  0
 17 18  2  0  0  0
 17 38  1  0  0  0
 18 19  1  0  0  0
 18 39  1  0  0  0
 21 22  1  0  0  0
 22 40  1  0  0  0
 22 41  1  0  0  0
 23 24  1  0  0  0
 23 25  2  0  0  0
M  CHG  1  24  -1
M  END
> <s_m_entry_id>
27645

> <s_m_entry_name>
data_maestro.33

> <s_m_Source_Path>
C:\Users\olshana1\Git\GramNeg-Accumulation\Gram Negative Permeation - OmpF

> <s_m_Source_File>
data_maestro.csv

> <i_m_Source_File_Index>
33

> <s_m_job_name>
glide-dock_Nicaido_neutral

> <s_i_glide_gridfile>
3POX-grid

> <i_i_glide_lignum>
42

> <i_i_glide_rotatable_bonds>
8

> <r_i_docking_score>
-4.33721077036668

> <r_i_glide_ligand_efficiency>
-0.166815798860257

> <r_i_glide_ligand_efficiency_sa>
-0.494191147735039

> <r_i_glide_ligand_efficiency_ln>
-1.0185797178713

> <r_i_glide_gscore>
-4.33721077036668

> <r_i_glide_lipo>
-0.410898068786989

> <r_i_glide_hbond>
-0.656074805503591

> <r_i_glide_metal>
0

> <r_i_glide_rewards>
-0.70510368795878

> <r_i_glide_evdw>
-23.5742015838623

> <r_i_glide_ecoul>
-10.7760953903198

> <r_i_glide_erotb>
0.625287901339008

> <r_i_glide_esite>
-0.39529772171524

> <r_i_glide_emodel>
-53.558507252654

> <r_i_glide_energy>
-34.3502969741821

> <r_i_glide_einternal>
7.10750389099121

> <i_i_glide_confnum>
115

> <i_i_glide_posenum>
154

> <r_i_glide_eff_state_penalty>
0

> <r_glide_res:A132_vdw>
-1.44025629797153

> <r_glide_res:A132_coul>
-41.8892331503007

> <r_glide_res:A132_hbond>
0

> <r_glide_res:A132_dist>
2.67557677739265

> <r_glide_res:A132_Eint>
-43.3294894482722

> <r_glide_res:A117_vdw>
-4.47922512460894

> <r_glide_res:A117_coul>
10.7647288653952

> <r_glide_res:A117_hbond>
-0.0960748055035908

> <r_glide_res:A117_dist>
2.25981298624102

> <r_glide_res:A117_Eint>
6.1894289352827

> <r_glide_res:A113_vdw>
-3.06245708295296

> <r_glide_res:A113_coul>
24.3073534967402

> <r_glide_res:A113_hbond>
0

> <r_glide_res:A113_dist>
2.30814383451987

> <r_glide_res:A113_Eint>
21.2448964137873

> <r_glide_res:A82_vdw>
1.24028730110415

> <r_glide_res:A82_coul>
-59.2994328840408

> <r_glide_res:A82_hbond>
-0.4

> <r_glide_res:A82_dist>
1.66632775221131

> <r_glide_res:A82_Eint>
-58.4591455829366

> <r_glide_res:A42_vdw>
1.02764252871407

> <r_glide_res:A42_coul>
-40.6078513946788

> <r_glide_res:A42_hbond>
-0.16

> <r_glide_res:A42_dist>
1.70661788969791

> <r_glide_res:A42_Eint>
-39.7402088659648

> <r_glide_res:A16_vdw>
-0.360373513054421

> <r_glide_res:A16_coul>
-22.6199628090228

> <r_glide_res:A16_hbond>
0

> <r_glide_res:A16_dist>
4.84700053706071

> <r_glide_res:A16_Eint>
-22.9803363220772

> <s_m_source_file>
ligprep_Nicaido_neutral.maegz

> <i_m_source_file_index>
33

> <i_lp_mmshare_version>
58128

> <i_f3d_flags>
0

> <s_lp_Force_Field>
S-OPLS

> <r_lp_Energy>
31.39315

> <b_lp_Chiralities_Consistent>
1

> <s_lp_Variant>
Cephalothin-1

> <s_epik_input>
W0NIM11DKD1PKU9bQ0gyXUMoPUMxQyg9TylbT0hdKVtDSDJdU1tDQEBIXShOMTIpW0NASF0oQzI9TylbTkhdQyg9TylbQ0gyXWMzW2NIXVtjSF1bY0hdczM=

> <s_epik_cmdline>
J2VwaWtfcHl0aG9uJywgJy1waHQnLCAnMC4wJywgJy1waCcsICc3LjQnLCAnLW50JywgJy1tYScsICc1MDAnLCAnLWltYWUnLCAnPGluZmlsZS5tYWU+JywgJy1vbWFlJywgJzxvdXRmaWxlLm1hZT4n

> <r_lp_tautomer_probability>
1

> <r_epik_Ionization_Penalty>
  0.0000

> <r_epik_Ionization_Penalty_Charging>
  0.0000

> <r_epik_Ionization_Penalty_Neutral>
  0.0000

> <r_epik_State_Penalty>
  0.0000

> <r_epik_Charging_Adjusted_Penalty>
6.16900125885048e-06

> <i_epik_Tot_Q>
-1

> <i_epik_Tot_abs_Q>
1

> <s_epik_Chemistry_Notes>
This compound has an ester and may undergo hydrolysis at high or low pH. This compound contains an acetal/aminal-like group ( X-CH(R)-Y where X, Y are N, S, or O) that may be acid/base labile, releasing an aldehyde.

> <s_m_subgroup_title>
glide-dock_Nicaido_neutral_pv1

> <s_m_subgroupid>
glide-dock_Nicaido_neutral_pv1

> <b_m_subgroup_collapsed>
0

$$$$
Penicillin N
                    3D
 Schrodinger Suite 2022-2.
 44 45  0  0  1  0            999 V2000
  -24.3725  -23.2714  -19.7642 C   0  0  0  0  0  0
  -22.9843  -23.5222  -20.3814 C   0  0  0  0  0  0
  -21.9978  -23.8988  -19.2578 C   0  0  0  0  0  0
  -23.1093  -24.5842  -21.5331 C   0  0  2  0  0  0
  -22.0536  -25.7010  -21.6140 C   0  0  0  0  0  0
  -21.0854  -25.5493  -22.3981 O   0  5  0  0  0  0
  -22.2806  -26.7403  -20.9515 O   0  0  0  0  0  0
  -23.0929  -23.7892  -22.7374 N   0  0  0  0  0  0
  -22.4044  -22.5257  -22.8892 C   0  0  1  0  0  0
  -23.4053  -22.1809  -24.0066 C   0  0  2  0  0  0
  -24.3398  -21.1261  -23.6081 N   0  0  0  0  0  0
  -25.5001  -20.8774  -24.2326 C   0  0  0  0  0  0
  -26.3975  -19.7732  -23.6722 C   0  0  0  0  0  0
  -27.7433  -20.3402  -23.1786 C   0  0  0  0  0  0
  -27.6776  -20.9212  -21.7519 C   0  0  0  0  0  0
  -28.7965  -21.9459  -21.4381 C   0  0  2  0  0  0
  -29.1687  -21.8759  -20.0134 N   0  3  0  0  0  0
  -28.3401  -23.3846  -21.7655 C   0  0  0  0  0  0
  -27.5723  -23.9494  -20.9539 O   0  5  0  0  0  0
  -28.7671  -23.9227  -22.8123 O   0  0  0  0  0  0
  -25.8762  -21.5198  -25.2132 O   0  0  0  0  0  0
  -23.9282  -23.6192  -23.8059 C   0  0  0  0  0  0
  -24.7686  -24.3465  -24.2903 O   0  0  0  0  0  0
  -22.4317  -21.9505  -21.1626 S   0  0  0  0  0  0
  -24.7749  -24.1698  -19.2951 H   0  0  0  0  0  0
  -24.3343  -22.4932  -19.0016 H   0  0  0  0  0  0
  -25.0809  -22.9423  -20.5244 H   0  0  0  0  0  0
  -22.2842  -24.8318  -18.7708 H   0  0  0  0  0  0
  -20.9808  -24.0163  -19.6368 H   0  0  0  0  0  0
  -21.9640  -23.1234  -18.4907 H   0  0  0  0  0  0
  -24.0738  -25.0855  -21.4740 H   0  0  0  0  0  0
  -21.3797  -22.6473  -23.2443 H   0  0  0  0  0  0
  -22.9133  -21.9965  -24.9615 H   0  0  0  0  0  0
  -24.0920  -20.5658  -22.8040 H   0  0  0  0  0  0
  -26.5793  -19.0609  -24.4790 H   0  0  0  0  0  0
  -25.8967  -19.2111  -22.8813 H   0  0  0  0  0  0
  -28.1014  -21.1011  -23.8735 H   0  0  0  0  0  0
  -28.4965  -19.5512  -23.2038 H   0  0  0  0  0  0
  -27.7214  -20.0840  -21.0531 H   0  0  0  0  0  0
  -26.7013  -21.3772  -21.5782 H   0  0  0  0  0  0
  -29.6955  -21.7014  -22.0048 H   0  0  0  0  0  0
  -29.9356  -22.5026  -19.8118 H   0  0  0  0  0  0
  -28.3745  -22.1449  -19.4507 H   0  0  0  0  0  0
  -29.4669  -20.9407  -19.7597 H   0  0  0  0  0  0
  1  2  1  0  0  0
  1 25  1  0  0  0
  1 26  1  0  0  0
  1 27  1  0  0  0
  2 24  1  0  0  0
  2  3  1  0  0  0
  2  4  1  0  0  0
  3 28  1  0  0  0
  3 29  1  0  0  0
  3 30  1  0  0  0
  4  5  1  0  0  0
  4  8  1  0  0  0
  4 31  1  0  0  0
  5  6  1  0  0  0
  5  7  2  0  0  0
  8 22  1  0  0  0
  8  9  1  0  0  0
  9 10  1  0  0  0
  9 24  1  0  0  0
  9 32  1  0  0  0
 10 11  1  0  0  0
 10 22  1  0  0  0
 10 33  1  0  0  0
 11 12  1  0  0  0
 11 34  1  0  0  0
 12 13  1  0  0  0
 12 21  2  0  0  0
 13 14  1  0  0  0
 13 35  1  0  0  0
 13 36  1  0  0  0
 14 15  1  0  0  0
 14 37  1  0  0  0
 14 38  1  0  0  0
 15 16  1  0  0  0
 15 39  1  0  0  0
 15 40  1  0  0  0
 16 17  1  0  0  0
 16 18  1  0  0  0
 16 41  1  0  0  0
 17 42  1  0  0  0
 17 43  1  0  0  0
 17 44  1  0  0  0
 18 19  1  0  0  0
 18 20  2  0  0  0
 22 23  2  0  0  0
M  CHG  3   6  -1  17   1  19  -1
M  END
> <s_m_entry_id>
27646

> <s_m_entry_name>
data_maestro.26

> <s_m_Source_Path>
C:\Users\olshana1\Git\GramNeg-Accumulation\Gram Negative Permeation - OmpF

> <s_m_Source_File>
data_maestro.csv

> <i_m_Source_File_Index>
26

> <s_m_job_name>
glide-dock_Nicaido_neutral

> <s_i_glide_gridfile>
3POX-grid

> <i_i_glide_lignum>
33

> <i_i_glide_rotatable_bonds>
8

> <r_i_docking_score>
-4.33696327264343

> <r_i_glide_ligand_efficiency>
-0.18070680302681

> <r_i_glide_ligand_efficiency_sa>
-0.521248617481898

> <r_i_glide_ligand_efficiency_ln>
-1.03803432142047

> <r_i_glide_gscore>
-4.33696327264343

> <r_i_glide_lipo>
0

> <r_i_glide_hbond>
-0.948983602800851

> <r_i_glide_metal>
0

> <r_i_glide_rewards>
-0.96551519549524

> <r_i_glide_evdw>
-11.9341487884521

> <r_i_glide_ecoul>
-15.0605583190918

> <r_i_glide_erotb>
0.894795809723686

> <r_i_glide_esite>
-0.461469096784648

> <r_i_glide_emodel>
-49.240154442043

> <r_i_glide_energy>
-26.9947071075439

> <r_i_glide_einternal>
7.1423020362854

> <i_i_glide_confnum>
104

> <i_i_glide_posenum>
69

> <r_i_glide_eff_state_penalty>
0

> <r_glide_res:A132_vdw>
-0.850831104429849

> <r_glide_res:A132_coul>
-49.0506045687589

> <r_glide_res:A132_hbond>
-0.224466710308893

> <r_glide_res:A132_dist>
1.92347959840799

> <r_glide_res:A132_Eint>
-50.1259023834977

> <r_glide_res:A117_vdw>
-2.17145974418723

> <r_glide_res:A117_coul>
13.1148425826667

> <r_glide_res:A117_hbond>
0

> <r_glide_res:A117_dist>
2.8338220755668

> <r_glide_res:A117_Eint>
10.9433828384795

> <r_glide_res:A113_vdw>
1.06368005532422

> <r_glide_res:A113_coul>
-17.1441117017506

> <r_glide_res:A113_hbond>
-0.230247197589785

> <r_glide_res:A113_dist>
2.08820915424463

> <r_glide_res:A113_Eint>
-16.3106788440162

> <r_glide_res:A82_vdw>
-0.0666014805600749

> <r_glide_res:A82_coul>
-52.881657318768

> <r_glide_res:A82_hbond>
-0.298080013164176

> <r_glide_res:A82_dist>
2.0242659612938

> <r_glide_res:A82_Eint>
-53.2463388124922

> <r_glide_res:A42_vdw>
-0.168492601980214

> <r_glide_res:A42_coul>
-38.3398143154003

> <r_glide_res:A42_hbond>
-0.0940305342735299

> <r_glide_res:A42_dist>
2.00947675457574

> <r_glide_res:A42_Eint>
-38.6023374516541

> <r_glide_res:A16_vdw>
-0.153094261003382

> <r_glide_res:A16_coul>
-18.1978893843124

> <r_glide_res:A16_hbond>
0

> <r_glide_res:A16_dist>
4.7785023155786

> <r_glide_res:A16_Eint>
-18.3509836453158

> <s_m_source_file>
ligprep_Nicaido_neutral.maegz

> <i_m_source_file_index>
26

> <i_lp_mmshare_version>
58128

> <i_f3d_flags>
0

> <s_lp_Force_Field>
S-OPLS

> <r_lp_Energy>
12.253328

> <b_lp_Chiralities_Consistent>
1

> <s_lp_Variant>
Penicillin N-1

> <s_epik_input>
W09IXUMoPU8pW0NASF0xQyhbQ0gzXSkoW0NIM10pU1tDQEBIXShOMTIpW0NAQEhdKEMyPU8pW05IXUMoPU8pW0NIMl1bQ0gyXVtDSDJdW0NASF0oW05IMl0pQyg9TylbT0hd

> <s_epik_cmdline>
J2VwaWtfcHl0aG9uJywgJy1waHQnLCAnMC4wJywgJy1waCcsICc3LjQnLCAnLW50JywgJy1tYScsICc1MDAnLCAnLWltYWUnLCAnPGluZmlsZS5tYWU+JywgJy1vbWFlJywgJzxvdXRmaWxlLm1hZT4n

> <r_lp_tautomer_probability>
1

> <r_epik_Ionization_Penalty>
  0.0034

> <r_epik_Ionization_Penalty_Charging>
  0.0034

> <r_epik_Ionization_Penalty_Neutral>
  0.0000

> <r_epik_State_Penalty>
  0.0000

> <r_epik_Charging_Adjusted_Penalty>
0.0034368723547391

> <i_epik_Tot_Q>
-1

> <i_epik_Tot_abs_Q>
3

> <s_epik_Chemistry_Notes>
This compound contains an acetal/aminal-like group ( X-CH(R)-Y where X, Y are N, S, or O) that may be acid/base labile, releasing an aldehyde.

> <s_m_subgroup_title>
glide-dock_Nicaido_neutral_pv1

> <s_m_subgroupid>
glide-dock_Nicaido_neutral_pv1

> <b_m_subgroup_collapsed>
0

$$$$
Cefoxitin
                    3D
 Schrodinger Suite 2022-2.
 44 46  0  0  1  0            999 V2000
  -25.4558  -19.1952  -24.9208 C   0  0  0  0  0  0
  -26.5207  -18.9649  -24.0132 O   0  0  0  0  0  0
  -27.8382  -19.2901  -24.4461 C   0  0  2  0  0  0
  -28.8066  -19.5986  -23.2704 C   0  0  1  0  0  0
  -28.5814  -21.0020  -23.5669 N   0  0  0  0  0  0
  -27.9334  -20.7943  -24.7575 C   0  0  0  0  0  0
  -27.5688  -21.5496  -25.6255 O   0  0  0  0  0  0
  -29.0392  -22.0658  -22.7809 C   0  0  0  0  0  0
  -28.9950  -23.4506  -23.4587 C   0  0  0  0  0  0
  -29.5008  -23.5496  -24.6011 O   0  5  0  0  0  0
  -28.4100  -24.3496  -22.8133 O   0  0  0  0  0  0
  -29.4917  -21.9129  -21.5163 C   0  0  0  0  0  0
  -29.4981  -20.5697  -20.8134 C   0  0  0  0  0  0
  -28.3686  -19.3610  -21.5226 S   0  0  0  0  0  0
  -30.1114  -23.0538  -20.7100 C   0  0  0  0  0  0
  -29.1494  -23.9428  -20.1318 O   0  0  0  0  0  0
  -28.2793  -23.6397  -19.1396 C   0  0  0  0  0  0
  -28.7689  -22.7123  -18.2480 N   0  0  0  0  0  0
  -27.2014  -24.2218  -19.0360 O   0  0  0  0  0  0
  -28.3695  -18.3824  -25.4860 N   0  0  0  0  0  0
  -29.4813  -18.5419  -26.2374 C   0  0  0  0  0  0
  -29.8678  -17.4016  -27.1857 C   0  0  0  0  0  0
  -31.3606  -17.3180  -27.3771 C   0  0  0  0  0  0
  -32.3034  -16.7935  -26.5254 C   0  0  0  0  0  0
  -33.6339  -16.8720  -27.0285 C   0  0  0  0  0  0
  -33.6978  -17.4689  -28.2583 C   0  0  0  0  0  0
  -32.1197  -17.9496  -28.8134 S   0  0  0  0  0  0
  -30.1787  -19.5588  -26.2149 O   0  0  0  0  0  0
  -24.5534  -18.7545  -24.4931 H   0  0  0  0  0  0
  -25.2555  -20.2574  -25.0574 H   0  0  0  0  0  0
  -25.6461  -18.7498  -25.8982 H   0  0  0  0  0  0
  -29.8467  -19.3234  -23.4561 H   0  0  0  0  0  0
  -30.5114  -20.1696  -20.8134 H   0  0  0  0  0  0
  -29.1689  -20.6999  -19.7859 H   0  0  0  0  0  0
  -30.8415  -22.6726  -20.0134 H   0  0  0  0  0  0
  -30.7061  -23.6585  -21.3942 H   0  0  0  0  0  0
  -29.7390  -22.3524  -18.3479 H   0  0  0  0  0  0
  -28.1781  -22.4407  -17.4766 H   0  0  0  0  0  0
  -27.8162  -17.5429  -25.6449 H   0  0  0  0  0  0
  -29.3778  -17.5715  -28.1445 H   0  0  0  0  0  0
  -29.4708  -16.4580  -26.8144 H   0  0  0  0  0  0
  -32.0790  -16.3500  -25.5656 H   0  0  0  0  0  0
  -34.4808  -16.4936  -26.4752 H   0  0  0  0  0  0
  -34.5690  -17.6576  -28.8672 H   0  0  0  0  0  0
  1  2  1  0  0  0
  1 29  1  0  0  0
  1 30  1  0  0  0
  1 31  1  0  0  0
  2  3  1  0  0  0
  3  6  1  0  0  0
  3  4  1  0  0  0
  3 20  1  0  0  0
  4 14  1  0  0  0
  4  5  1  0  0  0
  4 32  1  0  0  0
  5  6  1  0  0  0
  5  8  1  0  0  0
  6  7  2  0  0  0
  8  9  1  0  0  0
  8 12  2  0  0  0
  9 10  1  0  0  0
  9 11  2  0  0  0
 12 13  1  0  0  0
 12 15  1  0  0  0
 13 14  1  0  0  0
 13 33  1  0  0  0
 13 34  1  0  0  0
 15 16  1  0  0  0
 15 35  1  0  0  0
 15 36  1  0  0  0
 16 17  1  0  0  0
 17 18  1  0  0  0
 17 19  2  0  0  0
 18 37  1  0  0  0
 18 38  1  0  0  0
 20 21  1  0  0  0
 20 39  1  0  0  0
 21 22  1  0  0  0
 21 28  2  0  0  0
 22 23  1  0  0  0
 22 40  1  0  0  0
 22 41  1  0  0  0
 23 27  1  0  0  0
 23 24  2  0  0  0
 24 25  1  0  0  0
 24 42  1  0  0  0
 25 26  2  0  0  0
 25 43  1  0  0  0
 26 27  1  0  0  0
 26 44  1  0  0  0
M  CHG  1  10  -1
M  END
> <s_m_entry_id>
27647

> <s_m_entry_name>
data_maestro.4

> <s_m_Source_Path>
C:\Users\olshana1\Git\GramNeg-Accumulation\Gram Negative Permeation - OmpF

> <s_m_Source_File>
data_maestro.csv

> <i_m_Source_File_Index>
4

> <s_m_job_name>
glide-dock_Nicaido_neutral

> <s_i_glide_gridfile>
3POX-grid

> <i_i_glide_lignum>
4

> <i_i_glide_rotatable_bonds>
9

> <r_i_docking_score>
-4.33482694482

> <r_i_glide_ligand_efficiency>
-0.154815248029286

> <r_i_glide_ligand_efficiency_sa>
-0.470110274321756

> <r_i_glide_ligand_efficiency_ln>
-1.00060533491405

> <r_i_glide_gscore>
-4.33482694482

> <r_i_glide_lipo>
0

> <r_i_glide_hbond>
-1.16098331034457

> <r_i_glide_metal>
0

> <r_i_glide_rewards>
0.803161142118194

> <r_i_glide_evdw>
-17.956714630127

> <r_i_glide_ecoul>
-19.5031890869141

> <r_i_glide_erotb>
0.545654768997296

> <r_i_glide_esite>
-0.699345451047465

> <r_i_glide_emodel>
-47.7535634890632

> <r_i_glide_energy>
-37.459903717041

> <r_i_glide_einternal>
18.6981601715088

> <i_i_glide_confnum>
20

> <i_i_glide_posenum>
209

> <r_i_glide_eff_state_penalty>
0

> <r_glide_res:A132_vdw>
-1.59008107034511

> <r_glide_res:A132_coul>
-42.9839104950881

> <r_glide_res:A132_hbond>
-0.20954597629798

> <r_glide_res:A132_dist>
2.01467769519422

> <r_glide_res:A132_Eint>
-44.7835375417312

> <r_glide_res:A117_vdw>
-2.01955394477104

> <r_glide_res:A117_coul>
11.7356029387932

> <r_glide_res:A117_hbond>
-0.15277015219185

> <r_glide_res:A117_dist>
1.97466112820806

> <r_glide_res:A117_Eint>
9.56327884183035

> <r_glide_res:A113_vdw>
7.09498563201929

> <r_glide_res:A113_coul>
6.99838384238987

> <r_glide_res:A113_hbond>
-0.138063118746869

> <r_glide_res:A113_dist>
1.56149239040749

> <r_glide_res:A113_Eint>
13.9553063556623

> <r_glide_res:A82_vdw>
7.29083435562552

> <r_glide_res:A82_coul>
-56.2816048057882

> <r_glide_res:A82_hbond>
-0.319913410767563

> <r_glide_res:A82_dist>
1.73544343953116

> <r_glide_res:A82_Eint>
-49.3106838609302

> <r_glide_res:A42_vdw>
1.15838757476289

> <r_glide_res:A42_coul>
-51.538517160592

> <r_glide_res:A42_hbond>
-0.338932386394204

> <r_glide_res:A42_dist>
1.71066848207905

> <r_glide_res:A42_Eint>
-50.7190619722234

> <r_glide_res:A16_vdw>
-1.76485787958309

> <r_glide_res:A16_coul>
-35.3110040135735

> <r_glide_res:A16_hbond>
-0.00175826594609875

> <r_glide_res:A16_dist>
2.49144262342017

> <r_glide_res:A16_Eint>
-37.0776201591027

> <s_m_source_file>
ligprep_Nicaido_neutral.maegz

> <i_m_source_file_index>
4

> <i_lp_mmshare_version>
58128

> <i_f3d_flags>
0

> <s_lp_Force_Field>
S-OPLS

> <r_lp_Energy>
27.517474

> <b_lp_Chiralities_Consistent>
1

> <s_lp_Variant>
Cefoxitin-1

> <s_epik_input>
czFbY0hdW2NIXVtjSF1jMVtDSDJdQyg9TylbTkhdW0NAXTIoT1tDSDNdKUMoPU8pTihbQ0BIXTIzKUMoQyg9TylbT0hdKT1DKFtDSDJdUzMpW0NIMl1PQyg9TylbTkgyXQ==

> <s_epik_cmdline>
J2VwaWtfcHl0aG9uJywgJy1waHQnLCAnMC4wJywgJy1waCcsICc3LjQnLCAnLW50JywgJy1tYScsICc1MDAnLCAnLWltYWUnLCAnPGluZmlsZS5tYWU+JywgJy1vbWFlJywgJzxvdXRmaWxlLm1hZT4n

> <r_lp_tautomer_probability>
1

> <r_epik_Ionization_Penalty>
  0.0000

> <r_epik_Ionization_Penalty_Charging>
  0.0000

> <r_epik_Ionization_Penalty_Neutral>
  0.0000

> <r_epik_State_Penalty>
  0.0000

> <r_epik_Charging_Adjusted_Penalty>
8.89144247208744e-06

> <i_epik_Tot_Q>
-1

> <i_epik_Tot_abs_Q>
1

> <s_epik_Chemistry_Notes>
This compound has an ester and may undergo hydrolysis at high or low pH. This compound contains an acetal/aminal-like group ( X-CH(R)-Y where X, Y are N, S, or O) that may be acid/base labile, releasing an aldehyde.

> <s_m_subgroup_title>
glide-dock_Nicaido_neutral_pv1

> <s_m_subgroupid>
glide-dock_Nicaido_neutral_pv1

> <b_m_subgroup_collapsed>
0

$$$$
Ceftizoxime
                    3D
 Schrodinger Suite 2022-2.
 37 39  0  0  1  0            999 V2000
  -23.3216  -22.2888  -15.2136 C   0  0  0  0  0  0
  -23.3452  -22.9608  -16.4550 O   0  0  0  0  0  0
  -24.6044  -22.7497  -17.0351 N   0  0  0  0  0  0
  -24.6801  -23.2328  -18.2119 C   0  0  0  0  0  0
  -23.5477  -23.8974  -18.9185 C   0  0  0  0  0  0
  -22.4037  -23.2001  -19.2358 C   0  0  0  0  0  0
  -21.2538  -24.1775  -20.1071 S   0  0  0  0  0  0
  -22.3863  -25.5142  -20.0133 C   0  0  0  0  0  0
  -22.1083  -26.7485  -20.5730 N   0  0  0  0  0  0
  -23.5117  -25.2276  -19.3615 N   0  0  0  0  0  0
  -25.9286  -23.1340  -19.0643 C   0  0  0  0  0  0
  -26.8612  -22.2840  -18.5733 N   0  0  0  0  0  0
  -28.0873  -21.7904  -19.2357 C   0  0  1  0  0  0
  -27.7884  -21.0311  -20.5460 C   0  0  1  0  0  0
  -28.7489  -21.9037  -21.1946 N   0  0  0  0  0  0
  -28.8163  -22.8094  -20.1431 C   0  0  0  0  0  0
  -29.2205  -23.9494  -20.0485 O   0  0  0  0  0  0
  -28.8437  -21.8352  -22.5923 C   0  0  0  0  0  0
  -28.7080  -23.1492  -23.4366 C   0  0  0  0  0  0
  -28.8610  -23.0633  -24.6806 O   0  5  0  0  0  0
  -28.3692  -24.1828  -22.8133 O   0  0  0  0  0  0
  -28.9682  -20.6254  -23.1720 C   0  0  0  0  0  0
  -29.1293  -19.3258  -22.4016 C   0  0  0  0  0  0
  -28.2440  -19.2783  -20.8065 S   0  0  0  0  0  0
  -26.0323  -23.7583  -20.1261 O   0  0  0  0  0  0
  -22.3122  -22.3434  -14.8133 H   0  0  0  0  0  0
  -23.5740  -21.2319  -15.3195 H   0  0  0  0  0  0
  -24.0075  -22.7507  -14.5024 H   0  0  0  0  0  0
  -22.1765  -22.1681  -19.0086 H   0  0  0  0  0  0
  -22.6631  -27.5336  -20.2642 H   0  0  0  0  0  0
  -21.1532  -26.9670  -20.8134 H   0  0  0  0  0  0
  -26.6602  -21.8648  -17.6744 H   0  0  0  0  0  0
  -28.7517  -21.2321  -18.5722 H   0  0  0  0  0  0
  -26.7863  -21.2132  -20.9412 H   0  0  0  0  0  0
  -29.0333  -20.5443  -24.2473 H   0  0  0  0  0  0
  -28.7718  -18.5001  -23.0187 H   0  0  0  0  0  0
  -30.1924  -19.1547  -22.2213 H   0  0  0  0  0  0
  1  2  1  0  0  0
  1 26  1  0  0  0
  1 27  1  0  0  0
  1 28  1  0  0  0
  2  3  1  0  0  0
  3  4  2  3  0  0
  4  5  1  0  0  0
  4 11  1  0  0  0
  5 10  1  0  0  0
  5  6  2  0  0  0
  6  7  1  0  0  0
  6 29  1  0  0  0
  7  8  1  0  0  0
  8  9  1  0  0  0
  8 10  2  0  0  0
  9 30  1  0  0  0
  9 31  1  0  0  0
 11 12  1  0  0  0
 11 25  2  0  0  0
 12 13  1  0  0  0
 12 32  1  0  0  0
 13 16  1  0  0  0
 13 14  1  0  0  0
 13 33  1  0  0  0
 14 24  1  0  0  0
 14 15  1  0  0  0
 14 34  1  0  0  0
 15 16  1  0  0  0
 15 18  1  0  0  0
 16 17  2  0  0  0
 18 19  1  0  0  0
 18 22  2  0  0  0
 19 20  1  0  0  0
 19 21  2  0  0  0
 22 23  1  0  0  0
 22 35  1  0  0  0
 23 24  1  0  0  0
 23 36  1  0  0  0
 23 37  1  0  0  0
M  CHG  1  20  -1
M  END
> <s_m_entry_id>
27648

> <s_m_entry_name>
data_maestro.5

> <s_m_Source_Path>
C:\Users\olshana1\Git\GramNeg-Accumulation\Gram Negative Permeation - OmpF

> <s_m_Source_File>
data_maestro.csv

> <i_m_Source_File_Index>
5

> <s_m_job_name>
glide-dock_Nicaido_neutral

> <s_i_glide_gridfile>
3POX-grid

> <i_i_glide_lignum>
5

> <i_i_glide_rotatable_bonds>
6

> <r_i_docking_score>
-4.33279588329564

> <r_i_glide_ligand_efficiency>
-0.173311835331825

> <r_i_glide_ligand_efficiency_sa>
-0.506766880208745

> <r_i_glide_ligand_efficiency_ln>
-1.02700246775597

> <r_i_glide_gscore>
-4.33279588329564

> <r_i_glide_lipo>
0

> <r_i_glide_hbond>
-0.829263272572815

> <r_i_glide_metal>
0

> <r_i_glide_rewards>
-0.799624473524936

> <r_i_glide_evdw>
-26.070348739624

> <r_i_glide_ecoul>
-10.1124439239502

> <r_i_glide_erotb>
0.664075194683877

> <r_i_glide_esite>
-0.547599306308032

> <r_i_glide_emodel>
-53.8394502908514

> <r_i_glide_energy>
-36.1827926635742

> <r_i_glide_einternal>
6.47039318084717

> <i_i_glide_confnum>
67

> <i_i_glide_posenum>
345

> <r_i_glide_eff_state_penalty>
0

> <r_glide_res:A132_vdw>
-3.00057106574601

> <r_glide_res:A132_coul>
-47.8544080862232

> <r_glide_res:A132_hbond>
-0.310077618297472

> <r_glide_res:A132_dist>
2.05898397448938

> <r_glide_res:A132_Eint>
-51.1650567702667

> <r_glide_res:A117_vdw>
-1.27495209086237

> <r_glide_res:A117_coul>
21.231128966902

> <r_glide_res:A117_hbond>
0

> <r_glide_res:A117_dist>
2.35446497214839

> <r_glide_res:A117_Eint>
19.9561768760396

> <r_glide_res:A113_vdw>
-3.40089986222624

> <r_glide_res:A113_coul>
23.801169261223

> <r_glide_res:A113_hbond>
0

> <r_glide_res:A113_dist>
2.52961961098374

> <r_glide_res:A113_Eint>
20.4002693989968

> <r_glide_res:A82_vdw>
1.96153010798127

> <r_glide_res:A82_coul>
-54.7622069700138

> <r_glide_res:A82_hbond>
-0.323059986507295

> <r_glide_res:A82_dist>
1.80161284470159

> <r_glide_res:A82_Eint>
-53.1237368485398

> <r_glide_res:A42_vdw>
-0.60875342604884

> <r_glide_res:A42_coul>
-44.1139529780896

> <r_glide_res:A42_hbond>
-0.196125667768048

> <r_glide_res:A42_dist>
1.99000565785687

> <r_glide_res:A42_Eint>
-44.9188320719065

> <r_glide_res:A16_vdw>
-0.215526102151629

> <r_glide_res:A16_coul>
-26.4708179536404

> <r_glide_res:A16_hbond>
0

> <r_glide_res:A16_dist>
4.1182731798302

> <r_glide_res:A16_Eint>
-26.6863440557921

> <s_m_source_file>
ligprep_Nicaido_neutral.maegz

> <i_m_source_file_index>
5

> <i_lp_mmshare_version>
58128

> <i_f3d_flags>
0

> <s_lp_Force_Field>
S-OPLS

> <r_lp_Energy>
52.616387

> <b_lp_Chiralities_Consistent>
1

> <s_lp_Variant>
Ceftizoxime-1

> <s_epik_input>
W05IMl1jKG4xKXNbY0hdYzEvQyg9TlxPW0NIM10pQyg9TylbTkhdW0NAQEhdMkMoPU8pTihbQ0BIXTIzKUMoQyg9TylbT0hdKT1bQ0hdW0NIMl1TMw==

> <s_epik_cmdline>
J2VwaWtfcHl0aG9uJywgJy1waHQnLCAnMC4wJywgJy1waCcsICc3LjQnLCAnLW50JywgJy1tYScsICc1MDAnLCAnLWltYWUnLCAnPGluZmlsZS5tYWU+JywgJy1vbWFlJywgJzxvdXRmaWxlLm1hZT4n

> <r_lp_tautomer_probability>
1

> <r_epik_Ionization_Penalty>
  0.0005

> <r_epik_Ionization_Penalty_Charging>
  0.0000

> <r_epik_Ionization_Penalty_Neutral>
  0.0005

> <r_epik_State_Penalty>
  0.0000

> <r_epik_Charging_Adjusted_Penalty>
4.86746471452517e-05

> <i_epik_Tot_Q>
-1

> <i_epik_Tot_abs_Q>
1

> <s_epik_Chemistry_Notes>
This compound has an imine and may undergo hydrolysis. This compound contains an acetal/aminal-like group ( X-CH(R)-Y where X, Y are N, S, or O) that may be acid/base labile, releasing an aldehyde.

> <s_m_subgroup_title>
glide-dock_Nicaido_neutral_pv1

> <s_m_subgroupid>
glide-dock_Nicaido_neutral_pv1

> <b_m_subgroup_collapsed>
0

$$$$
LY097964
                    3D
 Schrodinger Suite 2022-2.
 40 42  0  0  1  0            999 V2000
  -25.1804  -22.1993  -16.4961 C   0  0  0  0  0  0
  -26.0268  -22.4151  -17.6138 O   0  0  0  0  0  0
  -25.6236  -21.5222  -18.6154 N   0  0  0  0  0  0
  -26.3445  -21.5362  -19.6695 C   0  0  0  0  0  0
  -26.0166  -20.6059  -20.7984 C   0  0  0  0  0  0
  -25.0898  -19.5986  -20.6294 C   0  0  0  0  0  0
  -24.7684  -18.7247  -22.1011 S   0  0  0  0  0  0
  -25.9558  -19.7309  -22.9065 C   0  0  0  0  0  0
  -26.2663  -19.5521  -24.2417 N   0  0  0  0  0  0
  -26.4998  -20.6604  -22.1187 N   0  0  0  0  0  0
  -27.5037  -22.4882  -19.9302 C   0  0  0  0  0  0
  -28.6386  -21.8652  -20.3000 N   0  0  0  0  0  0
  -29.8098  -22.5343  -20.8689 C   0  0  1  0  0  0
  -30.7026  -21.5726  -21.6814 C   0  0  1  0  0  0
  -30.6073  -22.5304  -22.7763 N   0  0  0  0  0  0
  -29.5153  -23.1916  -22.2382 C   0  0  0  0  0  0
  -28.6864  -23.9498  -22.6991 O   0  0  0  0  0  0
  -31.2215  -22.2226  -24.0070 C   0  0  0  0  0  0
  -30.3323  -22.3035  -25.3222 C   0  0  0  0  0  0
  -30.8304  -21.9496  -26.4133 O   0  5  0  0  0  0
  -29.1690  -22.7495  -25.2132 O   0  0  0  0  0  0
  -32.5422  -21.9003  -23.9807 C   0  0  0  0  0  0
  -33.3361  -21.9626  -22.6792 C   0  0  0  0  0  0
  -32.4606  -21.2607  -21.2550 S   0  0  0  0  0  0
  -33.3937  -21.5987  -25.2072 C   0  0  0  0  0  0
  -27.3715  -23.7176  -19.8805 O   0  0  0  0  0  0
  -25.5526  -22.7495  -15.6347 H   0  0  0  0  0  0
  -24.1613  -22.5277  -16.7019 H   0  0  0  0  0  0
  -25.1573  -21.1482  -16.2075 H   0  0  0  0  0  0
  -24.5590  -19.3271  -19.7288 H   0  0  0  0  0  0
  -27.1692  -19.8794  -24.5493 H   0  0  0  0  0  0
  -25.9774  -18.6708  -24.6575 H   0  0  0  0  0  0
  -28.6824  -20.8565  -20.2365 H   0  0  0  0  0  0
  -30.3685  -23.1485  -20.1604 H   0  0  0  0  0  0
  -30.2019  -20.6364  -21.9423 H   0  0  0  0  0  0
  -34.2813  -21.4267  -22.7633 H   0  0  0  0  0  0
  -33.5792  -23.0045  -22.4715 H   0  0  0  0  0  0
  -33.0856  -20.6542  -25.6568 H   0  0  0  0  0  0
  -33.2984  -22.3914  -25.9494 H   0  0  0  0  0  0
  -34.4531  -21.5199  -24.9631 H   0  0  0  0  0  0
  1  2  1  0  0  0
  1 27  1  0  0  0
  1 28  1  0  0  0
  1 29  1  0  0  0
  2  3  1  0  0  0
  3  4  2  3  0  0
  4  5  1  0  0  0
  4 11  1  0  0  0
  5 10  1  0  0  0
  5  6  2  0  0  0
  6  7  1  0  0  0
  6 30  1  0  0  0
  7  8  1  0  0  0
  8  9  1  0  0  0
  8 10  2  0  0  0
  9 31  1  0  0  0
  9 32  1  0  0  0
 11 12  1  0  0  0
 11 26  2  0  0  0
 12 13  1  0  0  0
 12 33  1  0  0  0
 13 16  1  0  0  0
 13 14  1  0  0  0
 13 34  1  0  0  0
 14 24  1  0  0  0
 14 15  1  0  0  0
 14 35  1  0  0  0
 15 16  1  0  0  0
 15 18  1  0  0  0
 16 17  2  0  0  0
 18 19  1  0  0  0
 18 22  2  0  0  0
 19 20  1  0  0  0
 19 21  2  0  0  0
 22 23  1  0  0  0
 22 25  1  0  0  0
 23 24  1  0  0  0
 23 36  1  0  0  0
 23 37  1  0  0  0
 25 38  1  0  0  0
 25 39  1  0  0  0
 25 40  1  0  0  0
M  CHG  1  20  -1
M  END
> <s_m_entry_id>
27649

> <s_m_entry_name>
data_maestro.7

> <s_m_Source_Path>
C:\Users\olshana1\Git\GramNeg-Accumulation\Gram Negative Permeation - OmpF

> <s_m_Source_File>
data_maestro.csv

> <i_m_Source_File_Index>
7

> <s_m_job_name>
glide-dock_Nicaido_neutral

> <s_i_glide_gridfile>
3POX-grid

> <i_i_glide_lignum>
10

> <i_i_glide_rotatable_bonds>
6

> <r_i_docking_score>
-4.33211626890651

> <r_i_glide_ligand_efficiency>
-0.166619856496404

> <r_i_glide_ligand_efficiency_sa>
-0.493610669253121

> <r_i_glide_ligand_efficiency_ln>
-1.0173832909198

> <r_i_glide_gscore>
-4.33211626890651

> <r_i_glide_lipo>
0

> <r_i_glide_hbond>
-0.723978345803593

> <r_i_glide_metal>
0

> <r_i_glide_rewards>
-0.703384012785904

> <r_i_glide_evdw>
-24.2497653961182

> <r_i_glide_ecoul>
-10.9336156845093

> <r_i_glide_erotb>
0.622478626066327

> <r_i_glide_esite>
-0.674701913901042

> <r_i_glide_emodel>
-51.3117688784594

> <r_i_glide_energy>
-35.1833810806274

> <r_i_glide_einternal>
9.32897663116455

> <i_i_glide_confnum>
67

> <i_i_glide_posenum>
226

> <r_i_glide_eff_state_penalty>
0

> <r_glide_res:A132_vdw>
-2.09243918132631

> <r_glide_res:A132_coul>
-33.2418198436793

> <r_glide_res:A132_hbond>
-0.101774008058695

> <r_glide_res:A132_dist>
2.24556497985326

> <r_glide_res:A132_Eint>
-35.4360330330643

> <r_glide_res:A117_vdw>
-3.30477461625593

> <r_glide_res:A117_coul>
17.8015724843177

> <r_glide_res:A117_hbond>
-0.0435645725167295

> <r_glide_res:A117_dist>
2.39108856870818

> <r_glide_res:A117_Eint>
14.453233295545

> <r_glide_res:A113_vdw>
-3.47988551729622

> <r_glide_res:A113_coul>
18.0970988956499

> <r_glide_res:A113_hbond>
0

> <r_glide_res:A113_dist>
2.47914213018117

> <r_glide_res:A113_Eint>
14.6172133783537

> <r_glide_res:A82_vdw>
-1.65897239359688

> <r_glide_res:A82_coul>
-42.2164119442344

> <r_glide_res:A82_hbond>
-0.248936879279195

> <r_glide_res:A82_dist>
2.07437090734658

> <r_glide_res:A82_Eint>
-44.1243212171104

> <r_glide_res:A42_vdw>
1.53961415186918

> <r_glide_res:A42_coul>
-51.8612852797271

> <r_glide_res:A42_hbond>
-0.2

> <r_glide_res:A42_dist>
1.66822166437104

> <r_glide_res:A42_Eint>
-50.5216711278579

> <r_glide_res:A16_vdw>
0.629387595287653

> <r_glide_res:A16_coul>
-47.5057718262118

> <r_glide_res:A16_hbond>
-0.129702885948973

> <r_glide_res:A16_dist>
1.95515832158865

> <r_glide_res:A16_Eint>
-47.0060871168731

> <s_m_source_file>
ligprep_Nicaido_neutral.maegz

> <i_m_source_file_index>
7

> <i_lp_mmshare_version>
58128

> <i_f3d_flags>
0

> <s_lp_Force_Field>
S-OPLS

> <r_lp_Energy>
53.916069

> <b_lp_Chiralities_Consistent>
1

> <s_lp_Variant>
LY097964-2

> <s_epik_input>
W05IMl1jKG4xKXNbY0hdYzEvQyg9TlxPW0NIM10pQyg9TylbTkhdW0NAQEhdMkMoPU8pTihbQ0BIXTIzKUMoQyg9TylbT0hdKT1DKFtDSDJdUzMpW0NIM10=

> <s_epik_cmdline>
J2VwaWtfcHl0aG9uJywgJy1waHQnLCAnMC4wJywgJy1waCcsICc3LjQnLCAnLW50JywgJy1tYScsICc1MDAnLCAnLWltYWUnLCAnPGluZmlsZS5tYWU+JywgJy1vbWFlJywgJzxvdXRmaWxlLm1hZT4n

> <r_lp_tautomer_probability>
1

> <r_epik_Ionization_Penalty>
  0.0005

> <r_epik_Ionization_Penalty_Charging>
  0.0000

> <r_epik_Ionization_Penalty_Neutral>
  0.0005

> <r_epik_State_Penalty>
  0.0000

> <r_epik_Charging_Adjusted_Penalty>
1.64985111359435e-05

> <i_epik_Tot_Q>
-1

> <i_epik_Tot_abs_Q>
1

> <s_epik_Chemistry_Notes>
This compound has an imine and may undergo hydrolysis. This compound contains an acetal/aminal-like group ( X-CH(R)-Y where X, Y are N, S, or O) that may be acid/base labile, releasing an aldehyde.

> <s_m_subgroup_title>
glide-dock_Nicaido_neutral_pv1

> <s_m_subgroupid>
glide-dock_Nicaido_neutral_pv1

> <b_m_subgroup_collapsed>
0

$$$$
Cefamandole
                    3D
 Schrodinger Suite 2022-2.
 48 51  0  0  1  0            999 V2000
  -28.3479  -18.2423  -25.2271 C   0  0  0  0  0  0
  -28.3964  -19.6753  -25.3224 N   0  0  0  0  0  0
  -27.5783  -20.6268  -24.8507 C   0  0  0  0  0  0
  -26.0622  -20.3086  -23.9922 S   0  0  0  0  0  0
  -26.4851  -20.6014  -22.2326 C   0  0  0  0  0  0
  -27.9445  -20.9308  -21.9535 C   0  0  0  0  0  0
  -28.4050  -22.1924  -21.7466 C   0  0  0  0  0  0
  -29.7741  -22.4743  -21.6022 N   0  0  0  0  0  0
  -30.8213  -21.4777  -21.4517 C   0  0  2  0  0  0
  -31.8368  -22.6020  -21.7475 C   0  0  2  0  0  0
  -30.6228  -23.5579  -21.6170 C   0  0  0  0  0  0
  -30.4109  -24.7497  -21.6432 O   0  0  0  0  0  0
  -32.4851  -22.4933  -23.0725 N   0  0  0  0  0  0
  -32.1101  -22.9569  -24.2849 C   0  0  0  0  0  0
  -33.1206  -22.7376  -25.4261 C   0  0  2  0  0  0
  -33.2369  -23.9936  -26.2845 C   0  0  0  0  0  0
  -34.2096  -24.9681  -25.9739 C   0  0  0  0  0  0
  -34.3075  -26.1435  -26.7442 C   0  0  0  0  0  0
  -33.4383  -26.3492  -27.8320 C   0  0  0  0  0  0
  -32.4685  -25.3820  -28.1495 C   0  0  0  0  0  0
  -32.3665  -24.2092  -27.3769 C   0  0  0  0  0  0
  -32.7668  -21.5927  -26.1829 O   0  0  0  0  0  0
  -31.0525  -23.5498  -24.5106 O   0  0  0  0  0  0
  -30.5121  -20.0674  -22.5558 S   0  0  0  0  0  0
  -28.8534  -19.7050  -21.9374 C   0  0  0  0  0  0
  -27.4764  -23.4545  -21.7109 C   0  0  0  0  0  0
  -27.1657  -23.9495  -22.8133 O   0  5  0  0  0  0
  -27.2292  -23.9495  -20.5895 O   0  0  0  0  0  0
  -28.0232  -21.8232  -25.2133 N   0  0  0  0  0  0
  -29.1735  -21.5497  -25.9318 N   0  0  0  0  0  0
  -29.4007  -20.2760  -26.0025 N   0  0  0  0  0  0
  -27.3884  -17.9441  -24.8122 H   0  0  0  0  0  0
  -28.4560  -17.7956  -26.2154 H   0  0  0  0  0  0
  -29.1523  -17.8944  -24.5800 H   0  0  0  0  0  0
  -26.2172  -19.7091  -21.6652 H   0  0  0  0  0  0
  -25.8230  -21.3826  -21.8611 H   0  0  0  0  0  0
  -30.8614  -21.1497  -20.4160 H   0  0  0  0  0  0
  -32.5599  -22.7007  -20.9371 H   0  0  0  0  0  0
  -33.3551  -21.9830  -23.0553 H   0  0  0  0  0  0
  -34.1019  -22.5352  -24.9920 H   0  0  0  0  0  0
  -34.8779  -24.8248  -25.1377 H   0  0  0  0  0  0
  -35.0444  -26.8934  -26.4964 H   0  0  0  0  0  0
  -33.5084  -27.2596  -28.4093 H   0  0  0  0  0  0
  -31.8001  -25.5461  -28.9799 H   0  0  0  0  0  0
  -31.6101  -23.4778  -27.6135 H   0  0  0  0  0  0
  -33.5058  -21.3775  -26.7320 H   0  0  0  0  0  0
  -28.9220  -19.3373  -20.9136 H   0  0  0  0  0  0
  -28.4265  -18.8959  -22.5258 H   0  0  0  0  0  0
  1  2  1  0  0  0
  1 32  1  0  0  0
  1 33  1  0  0  0
  1 34  1  0  0  0
  2 31  1  0  0  0
  2  3  1  0  0  0
  3  4  1  0  0  0
  3 29  2  0  0  0
  4  5  1  0  0  0
  5  6  1  0  0  0
  5 35  1  0  0  0
  5 36  1  0  0  0
  6 25  1  0  0  0
  6  7  2  0  0  0
  7  8  1  0  0  0
  7 26  1  0  0  0
  8 11  1  0  0  0
  8  9  1  0  0  0
  9 10  1  0  0  0
  9 24  1  0  0  0
  9 37  1  0  0  0
 10 11  1  0  0  0
 10 13  1  0  0  0
 10 38  1  0  0  0
 11 12  2  0  0  0
 13 14  1  0  0  0
 13 39  1  0  0  0
 14 15  1  0  0  0
 14 23  2  0  0  0
 15 16  1  0  0  0
 15 22  1  0  0  0
 15 40  1  0  0  0
 16 21  1  0  0  0
 16 17  2  0  0  0
 17 18  1  0  0  0
 17 41  1  0  0  0
 18 19  2  0  0  0
 18 42  1  0  0  0
 19 20  1  0  0  0
 19 43  1  0  0  0
 20 21  2  0  0  0
 20 44  1  0  0  0
 21 45  1  0  0  0
 22 46  1  0  0  0
 24 25  1  0  0  0
 25 47  1  0  0  0
 25 48  1  0  0  0
 26 27  1  0  0  0
 26 28  2  0  0  0
 29 30  1  0  0  0
 30 31  2  0  0  0
M  CHG  1  27  -1
M  END
> <s_m_entry_id>
27650

> <s_m_entry_name>
data_maestro.9

> <s_m_Source_Path>
C:\Users\olshana1\Git\GramNeg-Accumulation\Gram Negative Permeation - OmpF

> <s_m_Source_File>
data_maestro.csv

> <i_m_Source_File_Index>
9

> <s_m_job_name>
glide-dock_Nicaido_neutral

> <s_i_glide_gridfile>
3POX-grid

> <i_i_glide_lignum>
12

> <i_i_glide_rotatable_bonds>
9

> <r_i_docking_score>
-4.32667740142547

> <r_i_glide_ligand_efficiency>
-0.13957023875566

> <r_i_glide_ligand_efficiency_sa>
-0.438443247174809

> <r_i_glide_ligand_efficiency_ln>
-0.975798350759531

> <r_i_glide_gscore>
-4.32667740142547

> <r_i_glide_lipo>
0

> <r_i_glide_hbond>
-0.574162716284251

> <r_i_glide_metal>
0

> <r_i_glide_rewards>
-0.262470873375855

> <r_i_glide_evdw>
-26.1734752655029

> <r_i_glide_ecoul>
-12.9970293045044

> <r_i_glide_erotb>
0.567285116635731

> <r_i_glide_esite>
-0.799100769450287

> <r_i_glide_emodel>
-58.2748326674574

> <r_i_glide_energy>
-39.1705045700073

> <r_i_glide_einternal>
10.9755620956421

> <i_i_glide_confnum>
23

> <i_i_glide_posenum>
301

> <r_i_glide_eff_state_penalty>
0

> <r_glide_res:A132_vdw>
-1.30177457359422

> <r_glide_res:A132_coul>
-53.154846786828

> <r_glide_res:A132_hbond>
-0.317826223092952

> <r_glide_res:A132_dist>
2.01723555763466

> <r_glide_res:A132_Eint>
-54.7744475835152

> <r_glide_res:A117_vdw>
-4.68027053035009

> <r_glide_res:A117_coul>
16.0751814434007

> <r_glide_res:A117_hbond>
0

> <r_glide_res:A117_dist>
2.179022371969

> <r_glide_res:A117_Eint>
11.3949109130506

> <r_glide_res:A113_vdw>
-2.66549609655834

> <r_glide_res:A113_coul>
18.1440371361589

> <r_glide_res:A113_hbond>
0

> <r_glide_res:A113_dist>
2.17042518795732

> <r_glide_res:A113_Eint>
15.4785410396006

> <r_glide_res:A82_vdw>
2.10518169523766

> <r_glide_res:A82_coul>
-60.7992792848021

> <r_glide_res:A82_hbond>
-0.256336493191299

> <r_glide_res:A82_dist>
1.55390592223109

> <r_glide_res:A82_Eint>
-58.9504340827558

> <r_glide_res:A42_vdw>
-1.86664715303041

> <r_glide_res:A42_coul>
-44.8312845225967

> <r_glide_res:A42_hbond>
0

> <r_glide_res:A42_dist>
1.91566968168183

> <r_glide_res:A42_Eint>
-46.6979316756271

> <r_glide_res:A16_vdw>
-2.78529832459333

> <r_glide_res:A16_coul>
-30.0729296846435

> <r_glide_res:A16_hbond>
0

> <r_glide_res:A16_dist>
2.2285406887492

> <r_glide_res:A16_Eint>
-32.8582280092368

> <s_m_source_file>
ligprep_Nicaido_neutral.maegz

> <i_m_source_file_index>
9

> <i_lp_mmshare_version>
58128

> <i_f3d_flags>
0

> <s_lp_Force_Field>
S-OPLS

> <r_lp_Energy>
50.610726

> <b_lp_Chiralities_Consistent>
1

> <s_lp_Variant>
Cefamandole-1

> <s_epik_input>
bjFubmMobjFbQ0gzXSlTW0NIMl1DKD1DMkMoPU8pW09IXSlbQ0gyXVNbQ0BIXShOMjMpW0NASF0oQzM9TylbTkhdQyg9TylbQ0BASF0oW09IXSljNFtjSF1bY0hdW2NIXVtjSF1bY0hdNA==

> <s_epik_cmdline>
J2VwaWtfcHl0aG9uJywgJy1waHQnLCAnMC4wJywgJy1waCcsICc3LjQnLCAnLW50JywgJy1tYScsICc1MDAnLCAnLWltYWUnLCAnPGluZmlsZS5tYWU+JywgJy1vbWFlJywgJzxvdXRmaWxlLm1hZT4n

> <r_lp_tautomer_probability>
1

> <r_epik_Ionization_Penalty>
  0.0002

> <r_epik_Ionization_Penalty_Charging>
  0.0000

> <r_epik_Ionization_Penalty_Neutral>
  0.0002

> <r_epik_State_Penalty>
  0.0000

> <r_epik_Charging_Adjusted_Penalty>
8.65070171415913e-06

> <i_epik_Tot_Q>
-1

> <i_epik_Tot_abs_Q>
1

> <s_epik_Chemistry_Notes>
This compound contains an acetal/aminal-like group ( X-CH(R)-Y where X, Y are N, S, or O) that may be acid/base labile, releasing an aldehyde.

> <s_m_subgroup_title>
glide-dock_Nicaido_neutral_pv1

> <s_m_subgroupid>
glide-dock_Nicaido_neutral_pv1

> <b_m_subgroup_collapsed>
0

$$$$
Cefaclor
                    3D
 Schrodinger Suite 2022-2.
 37 39  0  0  1  0            999 V2000
  -29.3911  -24.3495  -22.4134 O   0  0  0  0  0  0
  -30.0356  -23.3634  -22.1244 C   0  0  0  0  0  0
  -30.3378  -22.5830  -20.8403 C   0  0  2  0  0  0
  -30.7650  -21.4332  -21.7686 C   0  0  1  0  0  0
  -30.7469  -22.4122  -22.8481 N   0  0  0  0  0  0
  -30.9168  -21.9090  -24.1471 C   0  0  0  0  0  0
  -29.7972  -22.2071  -25.2134 C   0  0  0  0  0  0
  -28.7393  -22.7496  -24.8231 O   0  5  0  0  0  0
  -30.0451  -21.9496  -26.4133 O   0  0  0  0  0  0
  -32.0094  -21.1355  -24.3598 C   0  0  0  0  0  0
  -33.0882  -20.9226  -23.3090 C   0  0  0  0  0  0
  -32.4101  -20.6221  -21.6496 S   0  0  0  0  0  0
  -32.4167  -20.3254  -25.8373 Cl  0  0  0  0  0  0
  -29.1687  -22.2596  -20.0134 N   0  0  0  0  0  0
  -27.9534  -21.8135  -20.3972 C   0  0  0  0  0  0
  -26.9547  -21.4203  -19.2970 C   0  0  2  0  0  0
  -25.9973  -22.5702  -19.2628 C   0  0  0  0  0  0
  -24.8505  -22.5708  -20.0930 C   0  0  0  0  0  0
  -23.9234  -23.6312  -20.0750 C   0  0  0  0  0  0
  -24.1230  -24.7239  -19.2136 C   0  0  0  0  0  0
  -25.2578  -24.7486  -18.3849 C   0  0  0  0  0  0
  -26.1817  -23.6872  -18.4141 C   0  0  0  0  0  0
  -27.6062  -21.1495  -18.0170 N   0  0  0  0  0  0
  -27.6088  -21.7109  -21.5744 O   0  0  0  0  0  0
  -31.1754  -22.9921  -20.2755 H   0  0  0  0  0  0
  -29.9939  -20.6752  -21.9235 H   0  0  0  0  0  0
  -33.7456  -20.0947  -23.5769 H   0  0  0  0  0  0
  -33.7035  -21.8220  -23.2693 H   0  0  0  0  0  0
  -29.3688  -22.2686  -19.0201 H   0  0  0  0  0  0
  -26.4524  -20.5059  -19.6170 H   0  0  0  0  0  0
  -24.6784  -21.7346  -20.7562 H   0  0  0  0  0  0
  -23.0535  -23.5949  -20.7140 H   0  0  0  0  0  0
  -23.4069  -25.5315  -19.1848 H   0  0  0  0  0  0
  -25.4223  -25.5652  -17.6988 H   0  0  0  0  0  0
  -27.0366  -23.7227  -17.7530 H   0  0  0  0  0  0
  -27.2668  -20.2785  -17.6238 H   0  0  0  0  0  0
  -28.5943  -20.9686  -18.1503 H   0  0  0  0  0  0
  1  2  2  0  0  0
  2  5  1  0  0  0
  2  3  1  0  0  0
  3  4  1  0  0  0
  3 14  1  0  0  0
  3 25  1  0  0  0
  4 12  1  0  0  0
  4  5  1  0  0  0
  4 26  1  0  0  0
  5  6  1  0  0  0
  6  7  1  0  0  0
  6 10  2  0  0  0
  7  8  1  0  0  0
  7  9  2  0  0  0
 10 11  1  0  0  0
 10 13  1  0  0  0
 11 12  1  0  0  0
 11 27  1  0  0  0
 11 28  1  0  0  0
 14 15  1  0  0  0
 14 29  1  0  0  0
 15 16  1  0  0  0
 15 24  2  0  0  0
 16 17  1  0  0  0
 16 23  1  0  0  0
 16 30  1  0  0  0
 17 22  1  0  0  0
 17 18  2  0  0  0
 18 19  1  0  0  0
 18 31  1  0  0  0
 19 20  2  0  0  0
 19 32  1  0  0  0
 20 21  1  0  0  0
 20 33  1  0  0  0
 21 22  2  0  0  0
 21 34  1  0  0  0
 22 35  1  0  0  0
 23 36  1  0  0  0
 23 37  1  0  0  0
M  CHG  1   8  -1
M  END
> <s_m_entry_id>
27651

> <s_m_entry_name>
data_maestro.15

> <s_m_Source_Path>
C:\Users\olshana1\Git\GramNeg-Accumulation\Gram Negative Permeation - OmpF

> <s_m_Source_File>
data_maestro.csv

> <i_m_Source_File_Index>
15

> <s_m_job_name>
glide-dock_Nicaido_neutral

> <s_i_glide_gridfile>
3POX-grid

> <i_i_glide_lignum>
20

> <i_i_glide_rotatable_bonds>
5

> <r_i_docking_score>
-4.32000922756226

> <r_i_glide_ligand_efficiency>
-0.180000384481761

> <r_i_glide_ligand_efficiency_sa>
-0.519210953797949

> <r_i_glide_ligand_efficiency_ln>
-1.03397644046211

> <r_i_glide_gscore>
-4.43640922756226

> <r_i_glide_lipo>
0

> <r_i_glide_hbond>
-1.01334724843202

> <r_i_glide_metal>
0

> <r_i_glide_rewards>
-0.907491898667407

> <r_i_glide_evdw>
-18.3859634399414

> <r_i_glide_ecoul>
-10.566442489624

> <r_i_glide_erotb>
0.429266414571003

> <r_i_glide_esite>
-0.440571949593163

> <r_i_glide_emodel>
-44.4562433220634

> <r_i_glide_energy>
-28.9524059295654

> <r_i_glide_einternal>
10.4669075012207

> <i_i_glide_confnum>
24

> <i_i_glide_posenum>
52

> <r_i_glide_eff_state_penalty>
0.1164

> <r_glide_res:A132_vdw>
-2.2913493631634

> <r_glide_res:A132_coul>
-29.1046336841137

> <r_glide_res:A132_hbond>
0

> <r_glide_res:A132_dist>
2.61409556107187

> <r_glide_res:A132_Eint>
-31.3959830472771

> <r_glide_res:A117_vdw>
-0.718187278713183

> <r_glide_res:A117_coul>
25.382649287745

> <r_glide_res:A117_hbond>
0

> <r_glide_res:A117_dist>
4.82315926787788

> <r_glide_res:A117_Eint>
24.6644620090319

> <r_glide_res:A113_vdw>
-2.49682720085989

> <r_glide_res:A113_coul>
9.23419017161739

> <r_glide_res:A113_hbond>
-0.082856528975258

> <r_glide_res:A113_dist>
2.08847665942559

> <r_glide_res:A113_Eint>
6.65450644178223

> <r_glide_res:A82_vdw>
-0.423959640229779

> <r_glide_res:A82_coul>
-43.9004020286419

> <r_glide_res:A82_hbond>
-0.16

> <r_glide_res:A82_dist>
1.73770459502342

> <r_glide_res:A82_Eint>
-44.4843616688717

> <r_glide_res:A42_vdw>
0.300955281808785

> <r_glide_res:A42_coul>
-51.6047740759791

> <r_glide_res:A42_hbond>
-0.415875973436587

> <r_glide_res:A42_dist>
2.00605830700682

> <r_glide_res:A42_Eint>
-51.7196947676069

> <r_glide_res:A16_vdw>
-0.275345713939474

> <r_glide_res:A16_coul>
-48.5450127584877

> <r_glide_res:A16_hbond>
-0.2

> <r_glide_res:A16_dist>
1.89595658701906

> <r_glide_res:A16_Eint>
-49.0203584724271

> <s_m_source_file>
ligprep_Nicaido_neutral.maegz

> <i_m_source_file_index>
15

> <i_lp_mmshare_version>
58128

> <i_f3d_flags>
0

> <s_lp_Force_Field>
S-OPLS

> <r_lp_Energy>
48.098991

> <b_lp_Chiralities_Consistent>
1

> <s_lp_Variant>
Cefaclor-1

> <s_epik_input>
UzFbQ0gyXUMoQ2wpPUMoQyg9TylbT0hdKU4oW0NAQEhdMTIpQyg9TylbQ0BIXTJbTkhdQyg9TylbQ0BASF0oW05IMl0pYzNbY0hdW2NIXVtjSF1bY0hdW2NIXTM=

> <s_epik_cmdline>
J2VwaWtfcHl0aG9uJywgJy1waHQnLCAnMC4wJywgJy1waCcsICc3LjQnLCAnLW50JywgJy1tYScsICc1MDAnLCAnLWltYWUnLCAnPGluZmlsZS5tYWU+JywgJy1vbWFlJywgJzxvdXRmaWxlLm1hZT4n

> <r_epik_Ionization_Penalty>
  0.1164

> <r_epik_Ionization_Penalty_Charging>
  0.0000

> <r_epik_Ionization_Penalty_Neutral>
  0.1164

> <r_epik_State_Penalty>
  0.1164

> <r_epik_Charging_Adjusted_Penalty>
0.116403072965043

> <i_epik_Tot_Q>
-1

> <i_epik_Tot_abs_Q>
1

> <s_epik_Chemistry_Notes>
This compound contains an acetal/aminal-like group ( X-CH(R)-Y where X, Y are N, S, or O) that may be acid/base labile, releasing an aldehyde.

> <s_m_subgroup_title>
glide-dock_Nicaido_neutral_pv1

> <s_m_subgroupid>
glide-dock_Nicaido_neutral_pv1

> <b_m_subgroup_collapsed>
0

$$$$
Cefamandole
                    3D
 Schrodinger Suite 2022-2.
 48 51  0  0  1  0            999 V2000
  -32.1575  -17.1499  -25.2805 C   0  0  0  0  0  0
  -31.1126  -18.0322  -25.7557 N   0  0  0  0  0  0
  -31.0811  -19.3531  -25.9541 C   0  0  0  0  0  0
  -32.4394  -20.4356  -25.6874 S   0  0  0  0  0  0
  -32.2553  -20.7691  -23.9000 C   0  0  0  0  0  0
  -30.8422  -20.6533  -23.3225 C   0  0  0  0  0  0
  -29.8897  -21.6056  -23.5046 C   0  0  0  0  0  0
  -28.6025  -21.5141  -22.9529 N   0  0  0  0  0  0
  -28.0081  -20.2589  -22.5310 C   0  0  2  0  0  0
  -26.8262  -21.0879  -21.9856 C   0  0  2  0  0  0
  -27.4680  -22.2775  -22.7485 C   0  0  0  0  0  0
  -27.1682  -23.4118  -23.0637 O   0  0  0  0  0  0
  -26.8903  -21.1828  -20.5278 N   0  0  0  0  0  0
  -26.3082  -22.1092  -19.7556 C   0  0  0  0  0  0
  -26.5163  -21.9456  -18.2421 C   0  0  2  0  0  0
  -25.2140  -21.4864  -17.5892 C   0  0  0  0  0  0
  -24.7706  -20.1598  -17.7910 C   0  0  0  0  0  0
  -23.5689  -19.7110  -17.2115 C   0  0  0  0  0  0
  -22.8094  -20.5802  -16.4055 C   0  0  0  0  0  0
  -23.2515  -21.8984  -16.1827 C   0  0  0  0  0  0
  -24.4457  -22.3526  -16.7762 C   0  0  0  0  0  0
  -27.0328  -23.1497  -17.7117 O   0  0  0  0  0  0
  -25.6421  -23.0449  -20.2088 O   0  0  0  0  0  0
  -29.1692  -19.3991  -21.4302 S   0  0  0  0  0  0
  -30.6128  -19.3703  -22.5179 C   0  0  0  0  0  0
  -30.1468  -22.8861  -24.3513 C   0  0  0  0  0  0
  -29.9690  -22.7495  -25.5861 O   0  5  0  0  0  0
  -30.3680  -23.9448  -23.7174 O   0  0  0  0  0  0
  -29.8964  -19.7307  -26.4131 N   0  0  0  0  0  0
  -29.1685  -18.5624  -26.4507 N   0  0  0  0  0  0
  -29.8909  -17.5506  -26.0789 N   0  0  0  0  0  0
  -33.0996  -17.6878  -25.1760 H   0  0  0  0  0  0
  -31.8729  -16.7494  -24.3091 H   0  0  0  0  0  0
  -32.2979  -16.3306  -25.9845 H   0  0  0  0  0  0
  -32.6477  -21.7665  -23.7004 H   0  0  0  0  0  0
  -32.9206  -20.0897  -23.3668 H   0  0  0  0  0  0
  -27.7427  -19.6389  -23.3908 H   0  0  0  0  0  0
  -25.8641  -20.7454  -22.3674 H   0  0  0  0  0  0
  -27.4653  -20.4841  -20.0735 H   0  0  0  0  0  0
  -27.2685  -21.1755  -18.0574 H   0  0  0  0  0  0
  -25.3555  -19.4783  -18.3927 H   0  0  0  0  0  0
  -23.2400  -18.6941  -17.3705 H   0  0  0  0  0  0
  -21.8961  -20.2302  -15.9474 H   0  0  0  0  0  0
  -22.6771  -22.5590  -15.5507 H   0  0  0  0  0  0
  -24.7683  -23.3675  -16.5962 H   0  0  0  0  0  0
  -27.1699  -23.0266  -16.7828 H   0  0  0  0  0  0
  -30.5014  -18.5291  -23.1975 H   0  0  0  0  0  0
  -31.4771  -19.1610  -21.8874 H   0  0  0  0  0  0
  1  2  1  0  0  0
  1 32  1  0  0  0
  1 33  1  0  0  0
  1 34  1  0  0  0
  2 31  1  0  0  0
  2  3  1  0  0  0
  3  4  1  0  0  0
  3 29  2  0  0  0
  4  5  1  0  0  0
  5  6  1  0  0  0
  5 35  1  0  0  0
  5 36  1  0  0  0
  6 25  1  0  0  0
  6  7  2  0  0  0
  7  8  1  0  0  0
  7 26  1  0  0  0
  8 11  1  0  0  0
  8  9  1  0  0  0
  9 10  1  0  0  0
  9 24  1  0  0  0
  9 37  1  0  0  0
 10 11  1  0  0  0
 10 13  1  0  0  0
 10 38  1  0  0  0
 11 12  2  0  0  0
 13 14  1  0  0  0
 13 39  1  0  0  0
 14 15  1  0  0  0
 14 23  2  0  0  0
 15 16  1  0  0  0
 15 22  1  0  0  0
 15 40  1  0  0  0
 16 21  1  0  0  0
 16 17  2  0  0  0
 17 18  1  0  0  0
 17 41  1  0  0  0
 18 19  2  0  0  0
 18 42  1  0  0  0
 19 20  1  0  0  0
 19 43  1  0  0  0
 20 21  2  0  0  0
 20 44  1  0  0  0
 21 45  1  0  0  0
 22 46  1  0  0  0
 24 25  1  0  0  0
 25 47  1  0  0  0
 25 48  1  0  0  0
 26 27  1  0  0  0
 26 28  2  0  0  0
 29 30  1  0  0  0
 30 31  2  0  0  0
M  CHG  1  27  -1
M  END
> <s_m_entry_id>
27652

> <s_m_entry_name>
data_maestro.9

> <s_m_Source_Path>
C:\Users\olshana1\Git\GramNeg-Accumulation\Gram Negative Permeation - OmpF

> <s_m_Source_File>
data_maestro.csv

> <i_m_Source_File_Index>
9

> <s_m_job_name>
glide-dock_Nicaido_neutral

> <s_i_glide_gridfile>
3POX-grid

> <i_i_glide_lignum>
12

> <i_i_glide_rotatable_bonds>
9

> <r_i_docking_score>
-4.31619441801079

> <r_i_glide_ligand_efficiency>
-0.139232078000348

> <r_i_glide_ligand_efficiency_sa>
-0.437380955521889

> <r_i_glide_ligand_efficiency_ln>
-0.973434116734661

> <r_i_glide_gscore>
-4.31619441801079

> <r_i_glide_lipo>
0

> <r_i_glide_hbond>
-0.477183408707464

> <r_i_glide_metal>
0

> <r_i_glide_rewards>
-0.262519840632527

> <r_i_glide_evdw>
-31.3468856811523

> <r_i_glide_ecoul>
-12.2145309448242

> <r_i_glide_erotb>
0.567285116635731

> <r_i_glide_esite>
-0.744252359525278

> <r_i_glide_emodel>
-64.9288608275586

> <r_i_glide_energy>
-43.5614166259766

> <r_i_glide_einternal>
6.33044195175171

> <i_i_glide_confnum>
113

> <i_i_glide_posenum>
243

> <r_i_glide_eff_state_penalty>
0

> <r_glide_res:A132_vdw>
-1.63604713805414

> <r_glide_res:A132_coul>
-36.5196891925256

> <r_glide_res:A132_hbond>
0

> <r_glide_res:A132_dist>
2.78575044497547

> <r_glide_res:A132_Eint>
-38.1557363305797

> <r_glide_res:A117_vdw>
-4.53064836930057

> <r_glide_res:A117_coul>
21.5719131008401

> <r_glide_res:A117_hbond>
0

> <r_glide_res:A117_dist>
2.73588089539445

> <r_glide_res:A117_Eint>
17.0412647315395

> <r_glide_res:A113_vdw>
-2.61597953239189

> <r_glide_res:A113_coul>
22.0358959015945

> <r_glide_res:A113_hbond>
0

> <r_glide_res:A113_dist>
3.29716838556055

> <r_glide_res:A113_Eint>
19.4199163692026

> <r_glide_res:A82_vdw>
0.87922590227465

> <r_glide_res:A82_coul>
-51.8557449484929

> <r_glide_res:A82_hbond>
-0.277183408707464

> <r_glide_res:A82_dist>
1.93918737199697

> <r_glide_res:A82_Eint>
-51.2537024549258

> <r_glide_res:A42_vdw>
0.727060340222425

> <r_glide_res:A42_coul>
-50.1448023639439

> <r_glide_res:A42_hbond>
-0.2

> <r_glide_res:A42_dist>
1.67905590921247

> <r_glide_res:A42_Eint>
-49.6177420237214

> <r_glide_res:A16_vdw>
-1.17207063533934

> <r_glide_res:A16_coul>
-39.4641659134087

> <r_glide_res:A16_hbond>
0

> <r_glide_res:A16_dist>
2.26141022196492

> <r_glide_res:A16_Eint>
-40.636236548748

> <s_m_source_file>
ligprep_Nicaido_neutral.maegz

> <i_m_source_file_index>
9

> <i_lp_mmshare_version>
58128

> <i_f3d_flags>
0

> <s_lp_Force_Field>
S-OPLS

> <r_lp_Energy>
50.610726

> <b_lp_Chiralities_Consistent>
1

> <s_lp_Variant>
Cefamandole-1

> <s_epik_input>
bjFubmMobjFbQ0gzXSlTW0NIMl1DKD1DMkMoPU8pW09IXSlbQ0gyXVNbQ0BIXShOMjMpW0NASF0oQzM9TylbTkhdQyg9TylbQ0BASF0oW09IXSljNFtjSF1bY0hdW2NIXVtjSF1bY0hdNA==

> <s_epik_cmdline>
J2VwaWtfcHl0aG9uJywgJy1waHQnLCAnMC4wJywgJy1waCcsICc3LjQnLCAnLW50JywgJy1tYScsICc1MDAnLCAnLWltYWUnLCAnPGluZmlsZS5tYWU+JywgJy1vbWFlJywgJzxvdXRmaWxlLm1hZT4n

> <r_lp_tautomer_probability>
1

> <r_epik_Ionization_Penalty>
  0.0002

> <r_epik_Ionization_Penalty_Charging>
  0.0000

> <r_epik_Ionization_Penalty_Neutral>
  0.0002

> <r_epik_State_Penalty>
  0.0000

> <r_epik_Charging_Adjusted_Penalty>
8.65070171415913e-06

> <i_epik_Tot_Q>
-1

> <i_epik_Tot_abs_Q>
1

> <s_epik_Chemistry_Notes>
This compound contains an acetal/aminal-like group ( X-CH(R)-Y where X, Y are N, S, or O) that may be acid/base labile, releasing an aldehyde.

> <s_m_subgroup_title>
glide-dock_Nicaido_neutral_pv1

> <s_m_subgroupid>
glide-dock_Nicaido_neutral_pv1

> <b_m_subgroup_collapsed>
0

$$$$
Penicillin N
                    3D
 Schrodinger Suite 2022-2.
 44 45  0  0  1  0            999 V2000
  -21.0959  -22.5971  -20.4351 C   0  0  0  0  0  0
  -21.2874  -24.0685  -20.8500 C   0  0  0  0  0  0
  -20.5065  -24.3072  -22.1585 C   0  0  0  0  0  0
  -20.8793  -25.0095  -19.6622 C   0  0  2  0  0  0
  -20.3699  -26.4189  -20.0345 C   0  0  0  0  0  0
  -21.1226  -27.1653  -20.7021 O   0  5  0  0  0  0
  -19.2370  -26.7489  -19.6133 O   0  0  0  0  0  0
  -22.1211  -25.1498  -18.9370 N   0  0  0  0  0  0
  -23.4061  -25.2968  -19.5876 C   0  0  1  0  0  0
  -24.0582  -24.7899  -18.2845 C   0  0  2  0  0  0
  -24.7667  -23.5222  -18.4313 N   0  0  0  0  0  0
  -25.9514  -23.4032  -19.0484 C   0  0  0  0  0  0
  -26.6047  -22.0181  -19.0453 C   0  0  0  0  0  0
  -27.2790  -21.6523  -20.3853 C   0  0  0  0  0  0
  -26.2729  -21.4526  -21.5447 C   0  0  0  0  0  0
  -26.8861  -21.2164  -22.9505 C   0  0  2  0  0  0
  -27.8323  -20.0829  -22.9511 N   0  3  0  0  0  0
  -27.5387  -22.4574  -23.6065 C   0  0  0  0  0  0
  -27.9708  -22.3133  -24.7736 O   0  5  0  0  0  0
  -27.5684  -23.5494  -22.9898 O   0  0  0  0  0  0
  -26.5030  -24.3495  -19.6132 O   0  0  0  0  0  0
  -22.6214  -24.6557  -17.7607 C   0  0  0  0  0  0
  -22.0747  -24.2459  -16.7604 O   0  0  0  0  0  0
  -23.0871  -24.3495  -21.1212 S   0  0  0  0  0  0
  -20.0456  -22.3705  -20.2486 H   0  0  0  0  0  0
  -21.4456  -21.9191  -21.2137 H   0  0  0  0  0  0
  -21.6483  -22.3622  -19.5253 H   0  0  0  0  0  0
  -19.4324  -24.2113  -21.9996 H   0  0  0  0  0  0
  -20.6954  -25.2967  -22.5716 H   0  0  0  0  0  0
  -20.7928  -23.5851  -22.9243 H   0  0  0  0  0  0
  -20.1299  -24.5301  -19.0303 H   0  0  0  0  0  0
  -23.6337  -26.3406  -19.8137 H   0  0  0  0  0  0
  -24.6474  -25.5542  -17.7783 H   0  0  0  0  0  0
  -24.3661  -22.7091  -17.9862 H   0  0  0  0  0  0
  -25.8691  -21.2567  -18.7821 H   0  0  0  0  0  0
  -27.3516  -22.0070  -18.2499 H   0  0  0  0  0  0
  -27.8512  -20.7353  -20.2352 H   0  0  0  0  0  0
  -28.0181  -22.4126  -20.6351 H   0  0  0  0  0  0
  -25.5991  -22.3088  -21.6019 H   0  0  0  0  0  0
  -25.6292  -20.6076  -21.2977 H   0  0  0  0  0  0
  -26.0665  -20.9286  -23.6108 H   0  0  0  0  0  0
  -28.1899  -19.9624  -23.8887 H   0  0  0  0  0  0
  -28.5989  -20.2880  -22.3255 H   0  0  0  0  0  0
  -27.3686  -19.2355  -22.6530 H   0  0  0  0  0  0
  1  2  1  0  0  0
  1 25  1  0  0  0
  1 26  1  0  0  0
  1 27  1  0  0  0
  2 24  1  0  0  0
  2  3  1  0  0  0
  2  4  1  0  0  0
  3 28  1  0  0  0
  3 29  1  0  0  0
  3 30  1  0  0  0
  4  5  1  0  0  0
  4  8  1  0  0  0
  4 31  1  0  0  0
  5  6  1  0  0  0
  5  7  2  0  0  0
  8 22  1  0  0  0
  8  9  1  0  0  0
  9 10  1  0  0  0
  9 24  1  0  0  0
  9 32  1  0  0  0
 10 11  1  0  0  0
 10 22  1  0  0  0
 10 33  1  0  0  0
 11 12  1  0  0  0
 11 34  1  0  0  0
 12 13  1  0  0  0
 12 21  2  0  0  0
 13 14  1  0  0  0
 13 35  1  0  0  0
 13 36  1  0  0  0
 14 15  1  0  0  0
 14 37  1  0  0  0
 14 38  1  0  0  0
 15 16  1  0  0  0
 15 39  1  0  0  0
 15 40  1  0  0  0
 16 17  1  0  0  0
 16 18  1  0  0  0
 16 41  1  0  0  0
 17 42  1  0  0  0
 17 43  1  0  0  0
 17 44  1  0  0  0
 18 19  1  0  0  0
 18 20  2  0  0  0
 22 23  2  0  0  0
M  CHG  3   6  -1  17   1  19  -1
M  END
> <s_m_entry_id>
27653

> <s_m_entry_name>
data_maestro.26

> <s_m_Source_Path>
C:\Users\olshana1\Git\GramNeg-Accumulation\Gram Negative Permeation - OmpF

> <s_m_Source_File>
data_maestro.csv

> <i_m_Source_File_Index>
26

> <s_m_job_name>
glide-dock_Nicaido_neutral

> <s_i_glide_gridfile>
3POX-grid

> <i_i_glide_lignum>
33

> <i_i_glide_rotatable_bonds>
8

> <r_i_docking_score>
-4.30871707766415

> <r_i_glide_ligand_efficiency>
-0.179529878236006

> <r_i_glide_ligand_efficiency_sa>
-0.517853778937854

> <r_i_glide_ligand_efficiency_ln>
-1.0312737108285

> <r_i_glide_gscore>
-4.30871707766415

> <r_i_glide_lipo>
0

> <r_i_glide_hbond>
-0.86335012206703

> <r_i_glide_metal>
0

> <r_i_glide_rewards>
-0.965347359052236

> <r_i_glide_evdw>
-16.5575199127197

> <r_i_glide_ecoul>
-14.2905187606812

> <r_i_glide_erotb>
0.894795809723686

> <r_i_glide_esite>
-0.403361596530411

> <r_i_glide_emodel>
-54.4397861023962

> <r_i_glide_energy>
-30.8480386734009

> <r_i_glide_einternal>
4.11246109008789

> <i_i_glide_confnum>
3

> <i_i_glide_posenum>
135

> <r_i_glide_eff_state_penalty>
0

> <r_glide_res:A132_vdw>
-1.91755839248029

> <r_glide_res:A132_coul>
-42.3337730097274

> <r_glide_res:A132_hbond>
-0.173495795555504

> <r_glide_res:A132_dist>
1.96740266525469

> <r_glide_res:A132_Eint>
-44.4248271977632

> <r_glide_res:A117_vdw>
-0.952002750842504

> <r_glide_res:A117_coul>
0.370642698917936

> <r_glide_res:A117_hbond>
0

> <r_glide_res:A117_dist>
2.48932324847667

> <r_glide_res:A117_Eint>
-0.581360051924568

> <r_glide_res:A113_vdw>
-0.742008518440842

> <r_glide_res:A113_coul>
8.36653509026072

> <r_glide_res:A113_hbond>
0

> <r_glide_res:A113_dist>
3.5271821720994

> <r_glide_res:A113_Eint>
7.62452657181988

> <r_glide_res:A82_vdw>
0.180608456871288

> <r_glide_res:A82_coul>
-43.3775813321979

> <r_glide_res:A82_hbond>
-0.2

> <r_glide_res:A82_dist>
1.8719260677565

> <r_glide_res:A82_Eint>
-43.3969728753266

> <r_glide_res:A42_vdw>
0.279792034829936

> <r_glide_res:A42_coul>
-36.5389337271361

> <r_glide_res:A42_hbond>
-0.2

> <r_glide_res:A42_dist>
1.90965663727333

> <r_glide_res:A42_Eint>
-36.4591416923061

> <r_glide_res:A16_vdw>
-0.173186118145401

> <r_glide_res:A16_coul>
-15.2018934669784

> <r_glide_res:A16_hbond>
0

> <r_glide_res:A16_dist>
4.23259794576984

> <r_glide_res:A16_Eint>
-15.3750795851238

> <s_m_source_file>
ligprep_Nicaido_neutral.maegz

> <i_m_source_file_index>
26

> <i_lp_mmshare_version>
58128

> <i_f3d_flags>
0

> <s_lp_Force_Field>
S-OPLS

> <r_lp_Energy>
12.253328

> <b_lp_Chiralities_Consistent>
1

> <s_lp_Variant>
Penicillin N-1

> <s_epik_input>
W09IXUMoPU8pW0NASF0xQyhbQ0gzXSkoW0NIM10pU1tDQEBIXShOMTIpW0NAQEhdKEMyPU8pW05IXUMoPU8pW0NIMl1bQ0gyXVtDSDJdW0NASF0oW05IMl0pQyg9TylbT0hd

> <s_epik_cmdline>
J2VwaWtfcHl0aG9uJywgJy1waHQnLCAnMC4wJywgJy1waCcsICc3LjQnLCAnLW50JywgJy1tYScsICc1MDAnLCAnLWltYWUnLCAnPGluZmlsZS5tYWU+JywgJy1vbWFlJywgJzxvdXRmaWxlLm1hZT4n

> <r_lp_tautomer_probability>
1

> <r_epik_Ionization_Penalty>
  0.0034

> <r_epik_Ionization_Penalty_Charging>
  0.0034

> <r_epik_Ionization_Penalty_Neutral>
  0.0000

> <r_epik_State_Penalty>
  0.0000

> <r_epik_Charging_Adjusted_Penalty>
0.0034368723547391

> <i_epik_Tot_Q>
-1

> <i_epik_Tot_abs_Q>
3

> <s_epik_Chemistry_Notes>
This compound contains an acetal/aminal-like group ( X-CH(R)-Y where X, Y are N, S, or O) that may be acid/base labile, releasing an aldehyde.

> <s_m_subgroup_title>
glide-dock_Nicaido_neutral_pv1

> <s_m_subgroupid>
glide-dock_Nicaido_neutral_pv1

> <b_m_subgroup_collapsed>
0

$$$$
Cefotaxime
                    3D
 Schrodinger Suite 2022-2.
 46 48  0  0  1  0            999 V2000
  -20.6325  -20.1006  -24.3932 C   0  0  0  0  0  0
  -22.0156  -19.5496  -24.7097 C   0  0  0  0  0  0
  -22.8258  -19.5689  -23.6383 O   0  0  0  0  0  0
  -24.1584  -19.0896  -23.7401 C   0  0  0  0  0  0
  -25.0696  -19.8224  -22.7653 C   0  0  0  0  0  0
  -25.7802  -20.9228  -23.1156 C   0  0  0  0  0  0
  -26.6594  -21.5595  -22.2304 N   0  0  0  0  0  0
  -27.3076  -20.8642  -21.1368 C   0  0  1  0  0  0
  -27.9979  -22.2057  -20.7877 C   0  0  2  0  0  0
  -27.3815  -22.7249  -22.1157 C   0  0  0  0  0  0
  -27.4467  -23.7197  -22.8086 O   0  0  0  0  0  0
  -29.4589  -22.0960  -20.8136 N   0  0  0  0  0  0
  -30.3203  -23.0512  -21.2172 C   0  0  0  0  0  0
  -31.7474  -22.5532  -21.5153 C   0  0  0  0  0  0
  -31.8983  -21.0923  -21.8255 C   0  0  0  0  0  0
  -33.0970  -20.4445  -21.6130 C   0  0  0  0  0  0
  -33.0290  -18.7501  -22.0138 S   0  0  0  0  0  0
  -31.3738  -18.9889  -22.5337 C   0  0  0  0  0  0
  -30.6139  -17.9496  -23.0287 N   0  0  0  0  0  0
  -30.9441  -20.2428  -22.4123 N   0  0  0  0  0  0
  -32.7983  -23.2840  -21.5409 N   0  0  0  0  0  0
  -32.5943  -24.6331  -21.2169 O   0  0  0  0  0  0
  -33.8609  -25.2610  -21.1560 C   0  0  0  0  0  0
  -29.9714  -24.2234  -21.3988 O   0  0  0  0  0  0
  -25.9897  -20.1517  -20.1028 S   0  0  0  0  0  0
  -25.1144  -19.1850  -21.3764 C   0  0  0  0  0  0
  -25.7030  -21.5496  -24.5423 C   0  0  0  0  0  0
  -26.7645  -21.5495  -25.2124 O   0  5  0  0  0  0
  -24.6261  -22.1098  -24.8419 O   0  0  0  0  0  0
  -22.2973  -19.1503  -25.8394 O   0  0  0  0  0  0
  -20.7128  -21.0034  -23.7872 H   0  0  0  0  0  0
  -20.1019  -20.3472  -25.3133 H   0  0  0  0  0  0
  -20.0511  -19.3592  -23.8436 H   0  0  0  0  0  0
  -24.5402  -19.1951  -24.7562 H   0  0  0  0  0  0
  -24.1733  -18.0232  -23.5147 H   0  0  0  0  0  0
  -27.9865  -20.0928  -21.5092 H   0  0  0  0  0  0
  -27.6026  -22.6612  -19.8790 H   0  0  0  0  0  0
  -29.8455  -21.1832  -20.5985 H   0  0  0  0  0  0
  -34.0073  -20.8505  -21.1964 H   0  0  0  0  0  0
  -29.6085  -18.0499  -23.0171 H   0  0  0  0  0  0
  -30.9434  -17.0093  -22.8272 H   0  0  0  0  0  0
  -33.7355  -26.3050  -20.8695 H   0  0  0  0  0  0
  -34.5042  -24.7865  -20.4134 H   0  0  0  0  0  0
  -34.3630  -25.2340  -22.1243 H   0  0  0  0  0  0
  -24.0948  -19.0208  -21.0269 H   0  0  0  0  0  0
  -25.5725  -18.2005  -21.4574 H   0  0  0  0  0  0
  1  2  1  0  0  0
  1 31  1  0  0  0
  1 32  1  0  0  0
  1 33  1  0  0  0
  2  3  1  0  0  0
  2 30  2  0  0  0
  3  4  1  0  0  0
  4  5  1  0  0  0
  4 34  1  0  0  0
  4 35  1  0  0  0
  5 26  1  0  0  0
  5  6  2  0  0  0
  6  7  1  0  0  0
  6 27  1  0  0  0
  7 10  1  0  0  0
  7  8  1  0  0  0
  8  9  1  0  0  0
  8 25  1  0  0  0
  8 36  1  0  0  0
  9 10  1  0  0  0
  9 12  1  0  0  0
  9 37  1  0  0  0
 10 11  2  0  0  0
 12 13  1  0  0  0
 12 38  1  0  0  0
 13 14  1  0  0  0
 13 24  2  0  0  0
 14 15  1  0  0  0
 14 21  2  3  0  0
 15 20  1  0  0  0
 15 16  2  0  0  0
 16 17  1  0  0  0
 16 39  1  0  0  0
 17 18  1  0  0  0
 18 19  1  0  0  0
 18 20  2  0  0  0
 19 40  1  0  0  0
 19 41  1  0  0  0
 21 22  1  0  0  0
 22 23  1  0  0  0
 23 42  1  0  0  0
 23 43  1  0  0  0
 23 44  1  0  0  0
 25 26  1  0  0  0
 26 45  1  0  0  0
 26 46  1  0  0  0
 27 28  1  0  0  0
 27 29  2  0  0  0
M  CHG  1  28  -1
M  END
> <s_m_entry_id>
27654

> <s_m_entry_name>
data_maestro.6

> <s_m_Source_Path>
C:\Users\olshana1\Git\GramNeg-Accumulation\Gram Negative Permeation - OmpF

> <s_m_Source_File>
data_maestro.csv

> <i_m_Source_File_Index>
6

> <s_m_job_name>
glide-dock_Nicaido_neutral

> <s_i_glide_gridfile>
3POX-grid

> <i_i_glide_lignum>
8

> <i_i_glide_rotatable_bonds>
9

> <r_i_docking_score>
-4.30481605018169

> <r_i_glide_ligand_efficiency>
-0.14349386833939

> <r_i_glide_ligand_efficiency_sa>
-0.445868811603719

> <r_i_glide_ligand_efficiency_ln>
-0.978101111328921

> <r_i_glide_gscore>
-4.30481605018169

> <r_i_glide_lipo>
0

> <r_i_glide_hbond>
-0.686998885640745

> <r_i_glide_metal>
0

> <r_i_glide_rewards>
-0.298193931067266

> <r_i_glide_evdw>
-31.3610763549805

> <r_i_glide_ecoul>
-11.6941928863525

> <r_i_glide_erotb>
0.680611118548691

> <r_i_glide_esite>
-0.678051601320467

> <r_i_glide_emodel>
-62.686573257584

> <r_i_glide_energy>
-43.055269241333

> <r_i_glide_einternal>
5.46991014480591

> <i_i_glide_confnum>
166

> <i_i_glide_posenum>
372

> <r_i_glide_eff_state_penalty>
0

> <r_glide_res:A132_vdw>
-1.82374487237266

> <r_glide_res:A132_coul>
-31.4428978962206

> <r_glide_res:A132_hbond>
-0.0069988856407454

> <r_glide_res:A132_dist>
2.45264863296721

> <r_glide_res:A132_Eint>
-33.273641654234

> <r_glide_res:A117_vdw>
-3.66587011046202

> <r_glide_res:A117_coul>
26.2682178160689

> <r_glide_res:A117_hbond>
0

> <r_glide_res:A117_dist>
2.25474919362586

> <r_glide_res:A117_Eint>
22.6023477056069

> <r_glide_res:A113_vdw>
-6.01146339649504

> <r_glide_res:A113_coul>
9.84707811622911

> <r_glide_res:A113_hbond>
0

> <r_glide_res:A113_dist>
2.56054143465763

> <r_glide_res:A113_Eint>
3.83561471973407

> <r_glide_res:A82_vdw>
-0.566547461316186

> <r_glide_res:A82_coul>
-44.1634117949088

> <r_glide_res:A82_hbond>
-0.16

> <r_glide_res:A82_dist>
1.77300247274381

> <r_glide_res:A82_Eint>
-44.889959256225

> <r_glide_res:A42_vdw>
1.63813299329459

> <r_glide_res:A42_coul>
-51.015524430019

> <r_glide_res:A42_hbond>
-0.2

> <r_glide_res:A42_dist>
1.73691950363841

> <r_glide_res:A42_Eint>
-49.5773914367244

> <r_glide_res:A16_vdw>
-0.279156367692454

> <r_glide_res:A16_coul>
-27.5722832334721

> <r_glide_res:A16_hbond>
0

> <r_glide_res:A16_dist>
4.58810216788728

> <r_glide_res:A16_Eint>
-27.8514396011646

> <s_m_source_file>
ligprep_Nicaido_neutral.maegz

> <i_m_source_file_index>
6

> <i_lp_mmshare_version>
58128

> <i_f3d_flags>
0

> <s_lp_Force_Field>
S-OPLS

> <r_lp_Energy>
51.702138

> <b_lp_Chiralities_Consistent>
1

> <s_lp_Variant>
Cefotaxime-2

> <s_epik_input>
W0NIM11DKD1PKU9bQ0gyXUMoPUMxQyg9TylbT0hdKVtDSDJdU1tDQEBIXShOMTIpW0NASF0oQzI9TylbTkhdQyg9TykvQyg9Ti9PW0NIM10pYzNbY0hdc2MobjMpW05IMl0=

> <s_epik_cmdline>
J2VwaWtfcHl0aG9uJywgJy1waHQnLCAnMC4wJywgJy1waCcsICc3LjQnLCAnLW50JywgJy1tYScsICc1MDAnLCAnLWltYWUnLCAnPGluZmlsZS5tYWU+JywgJy1vbWFlJywgJzxvdXRmaWxlLm1hZT4n

> <r_lp_tautomer_probability>
1

> <r_epik_Ionization_Penalty>
  0.0004

> <r_epik_Ionization_Penalty_Charging>
  0.0000

> <r_epik_Ionization_Penalty_Neutral>
  0.0004

> <r_epik_State_Penalty>
  0.0000

> <r_epik_Charging_Adjusted_Penalty>
5.45682606121274e-06

> <i_epik_Tot_Q>
-1

> <i_epik_Tot_abs_Q>
1

> <s_epik_Chemistry_Notes>
This compound has an ester and may undergo hydrolysis at high or low pH. This compound has an imine and may undergo hydrolysis. This compound contains an acetal/aminal-like group ( X-CH(R)-Y where X, Y are N, S, or O) that may be acid/base labile, releasing an aldehyde.

> <s_m_subgroup_title>
glide-dock_Nicaido_neutral_pv1

> <s_m_subgroupid>
glide-dock_Nicaido_neutral_pv1

> <b_m_subgroup_collapsed>
0

$$$$
Cefoxitin
                    3D
 Schrodinger Suite 2022-2.
 44 46  0  0  1  0            999 V2000
  -35.3834  -23.8525  -25.1294 C   0  0  0  0  0  0
  -34.1190  -23.2299  -25.3152 O   0  0  0  0  0  0
  -33.0119  -24.1103  -25.5182 C   0  0  2  0  0  0
  -32.3083  -24.5972  -24.2278 C   0  0  1  0  0  0
  -31.3992  -23.4696  -24.4047 N   0  0  0  0  0  0
  -31.7245  -23.2794  -25.7422 C   0  0  0  0  0  0
  -31.1692  -22.7495  -26.6818 O   0  0  0  0  0  0
  -30.3672  -23.2570  -23.4719 C   0  0  0  0  0  0
  -28.8904  -23.1109  -24.0084 C   0  0  0  0  0  0
  -28.7459  -22.7356  -25.1930 O   0  5  0  0  0  0
  -27.9847  -23.5495  -23.2620 O   0  0  0  0  0  0
  -30.7122  -23.1283  -22.1655 C   0  0  0  0  0  0
  -32.1676  -23.2296  -21.7277 C   0  0  0  0  0  0
  -33.0796  -24.5689  -22.5586 S   0  0  0  0  0  0
  -29.7709  -22.6521  -21.0647 C   0  0  0  0  0  0
  -29.0956  -23.7385  -20.4388 O   0  0  0  0  0  0
  -28.1458  -23.5495  -19.4890 C   0  0  0  0  0  0
  -28.3689  -22.4249  -18.7205 N   0  0  0  0  0  0
  -27.2257  -24.3493  -19.3278 O   0  0  0  0  0  0
  -33.2593  -25.1483  -26.5356 N   0  0  0  0  0  0
  -32.3788  -25.9119  -27.2106 C   0  0  0  0  0  0
  -32.9497  -26.7504  -28.3511 C   0  0  0  0  0  0
  -33.4569  -25.9013  -29.4717 C   0  0  0  0  0  0
  -32.7886  -25.5431  -30.6142 C   0  0  0  0  0  0
  -33.5688  -24.7242  -31.4812 C   0  0  0  0  0  0
  -34.8208  -24.4659  -30.9930 C   0  0  0  0  0  0
  -35.0787  -25.2496  -29.4602 S   0  0  0  0  0  0
  -31.1701  -25.9497  -26.9764 O   0  0  0  0  0  0
  -36.1155  -23.1001  -24.8362 H   0  0  0  0  0  0
  -35.7397  -24.3146  -26.0504 H   0  0  0  0  0  0
  -35.3535  -24.6121  -24.3482 H   0  0  0  0  0  0
  -31.7765  -25.5397  -24.3645 H   0  0  0  0  0  0
  -32.2269  -23.4037  -20.6525 H   0  0  0  0  0  0
  -32.6591  -22.2762  -21.9238 H   0  0  0  0  0  0
  -29.0327  -21.9695  -21.4867 H   0  0  0  0  0  0
  -30.3456  -22.0709  -20.3446 H   0  0  0  0  0  0
  -29.2691  -21.9495  -18.8038 H   0  0  0  0  0  0
  -27.7274  -22.2269  -17.9674 H   0  0  0  0  0  0
  -34.2193  -25.2267  -26.8346 H   0  0  0  0  0  0
  -33.7448  -27.3921  -27.9693 H   0  0  0  0  0  0
  -32.1660  -27.4133  -28.7193 H   0  0  0  0  0  0
  -31.7769  -25.8350  -30.8545 H   0  0  0  0  0  0
  -33.1847  -24.3502  -32.4165 H   0  0  0  0  0  0
  -35.6035  -23.8684  -31.4413 H   0  0  0  0  0  0
  1  2  1  0  0  0
  1 29  1  0  0  0
  1 30  1  0  0  0
  1 31  1  0  0  0
  2  3  1  0  0  0
  3  6  1  0  0  0
  3  4  1  0  0  0
  3 20  1  0  0  0
  4 14  1  0  0  0
  4  5  1  0  0  0
  4 32  1  0  0  0
  5  6  1  0  0  0
  5  8  1  0  0  0
  6  7  2  0  0  0
  8  9  1  0  0  0
  8 12  2  0  0  0
  9 10  1  0  0  0
  9 11  2  0  0  0
 12 13  1  0  0  0
 12 15  1  0  0  0
 13 14  1  0  0  0
 13 33  1  0  0  0
 13 34  1  0  0  0
 15 16  1  0  0  0
 15 35  1  0  0  0
 15 36  1  0  0  0
 16 17  1  0  0  0
 17 18  1  0  0  0
 17 19  2  0  0  0
 18 37  1  0  0  0
 18 38  1  0  0  0
 20 21  1  0  0  0
 20 39  1  0  0  0
 21 22  1  0  0  0
 21 28  2  0  0  0
 22 23  1  0  0  0
 22 40  1  0  0  0
 22 41  1  0  0  0
 23 27  1  0  0  0
 23 24  2  0  0  0
 24 25  1  0  0  0
 24 42  1  0  0  0
 25 26  2  0  0  0
 25 43  1  0  0  0
 26 27  1  0  0  0
 26 44  1  0  0  0
M  CHG  1  10  -1
M  END
> <s_m_entry_id>
27655

> <s_m_entry_name>
data_maestro.4

> <s_m_Source_Path>
C:\Users\olshana1\Git\GramNeg-Accumulation\Gram Negative Permeation - OmpF

> <s_m_Source_File>
data_maestro.csv

> <i_m_Source_File_Index>
4

> <s_m_job_name>
glide-dock_Nicaido_neutral

> <s_i_glide_gridfile>
3POX-grid

> <i_i_glide_lignum>
4

> <i_i_glide_rotatable_bonds>
9

> <r_i_docking_score>
-4.30010225977151

> <r_i_glide_ligand_efficiency>
-0.153575080706125

> <r_i_glide_ligand_efficiency_sa>
-0.46634439590915

> <r_i_glide_ligand_efficiency_ln>
-0.992589858043799

> <r_i_glide_gscore>
-4.30010225977151

> <r_i_glide_lipo>
-0.623886596405718

> <r_i_glide_hbond>
-1.0281272981117

> <r_i_glide_metal>
0

> <r_i_glide_rewards>
0.872191533997321

> <r_i_glide_evdw>
-26.5505561828613

> <r_i_glide_ecoul>
-14.7408361434937

> <r_i_glide_erotb>
0.545654768997296

> <r_i_glide_esite>
-0.527281437581597

> <r_i_glide_emodel>
-52.0327359158809

> <r_i_glide_energy>
-41.291392326355

> <r_i_glide_einternal>
17.0339107513428

> <i_i_glide_confnum>
85

> <i_i_glide_posenum>
108

> <r_i_glide_eff_state_penalty>
0

> <r_glide_res:A132_vdw>
-1.25523880399167

> <r_glide_res:A132_coul>
-39.6004137267044

> <r_glide_res:A132_hbond>
-0.288972151072087

> <r_glide_res:A132_dist>
2.04922540326816

> <r_glide_res:A132_Eint>
-41.1446246817682

> <r_glide_res:A117_vdw>
-0.271742914837116

> <r_glide_res:A117_coul>
24.6990986021221

> <r_glide_res:A117_hbond>
0

> <r_glide_res:A117_dist>
5.61464469347018

> <r_glide_res:A117_Eint>
24.427355687285

> <r_glide_res:A113_vdw>
-2.37609551902863

> <r_glide_res:A113_coul>
11.5729212596395

> <r_glide_res:A113_hbond>
-0.137800747714911

> <r_glide_res:A113_dist>
2.08453186863901

> <r_glide_res:A113_Eint>
9.05902499289592

> <r_glide_res:A82_vdw>
-2.42773707546611

> <r_glide_res:A82_coul>
-48.2090289572339

> <r_glide_res:A82_hbond>
-0.183037158246395

> <r_glide_res:A82_dist>
1.92579862798618

> <r_glide_res:A82_Eint>
-50.8198031909464

> <r_glide_res:A42_vdw>
0.233489783104999

> <r_glide_res:A42_coul>
-58.0139169736511

> <r_glide_res:A42_hbond>
-0.394162282465359

> <r_glide_res:A42_dist>
1.70629689203684

> <r_glide_res:A42_Eint>
-58.1745894730115

> <r_glide_res:A16_vdw>
-3.37162133043128

> <r_glide_res:A16_coul>
-39.8257348985466

> <r_glide_res:A16_hbond>
-0.024154958612948

> <r_glide_res:A16_dist>
2.15296193662717

> <r_glide_res:A16_Eint>
-43.2215111875908

> <s_m_source_file>
ligprep_Nicaido_neutral.maegz

> <i_m_source_file_index>
4

> <i_lp_mmshare_version>
58128

> <i_f3d_flags>
0

> <s_lp_Force_Field>
S-OPLS

> <r_lp_Energy>
27.517474

> <b_lp_Chiralities_Consistent>
1

> <s_lp_Variant>
Cefoxitin-1

> <s_epik_input>
czFbY0hdW2NIXVtjSF1jMVtDSDJdQyg9TylbTkhdW0NAXTIoT1tDSDNdKUMoPU8pTihbQ0BIXTIzKUMoQyg9TylbT0hdKT1DKFtDSDJdUzMpW0NIMl1PQyg9TylbTkgyXQ==

> <s_epik_cmdline>
J2VwaWtfcHl0aG9uJywgJy1waHQnLCAnMC4wJywgJy1waCcsICc3LjQnLCAnLW50JywgJy1tYScsICc1MDAnLCAnLWltYWUnLCAnPGluZmlsZS5tYWU+JywgJy1vbWFlJywgJzxvdXRmaWxlLm1hZT4n

> <r_lp_tautomer_probability>
1

> <r_epik_Ionization_Penalty>
  0.0000

> <r_epik_Ionization_Penalty_Charging>
  0.0000

> <r_epik_Ionization_Penalty_Neutral>
  0.0000

> <r_epik_State_Penalty>
  0.0000

> <r_epik_Charging_Adjusted_Penalty>
8.89144247208744e-06

> <i_epik_Tot_Q>
-1

> <i_epik_Tot_abs_Q>
1

> <s_epik_Chemistry_Notes>
This compound has an ester and may undergo hydrolysis at high or low pH. This compound contains an acetal/aminal-like group ( X-CH(R)-Y where X, Y are N, S, or O) that may be acid/base labile, releasing an aldehyde.

> <s_m_subgroup_title>
glide-dock_Nicaido_neutral_pv1

> <s_m_subgroupid>
glide-dock_Nicaido_neutral_pv1

> <b_m_subgroup_collapsed>
0

$$$$
Cephalothin
                    3D
 Schrodinger Suite 2022-2.
 41 43  0  0  1  0            999 V2000
  -32.5020  -22.3132  -25.5976 C   0  0  0  0  0  0
  -31.4638  -22.7239  -24.5634 C   0  0  0  0  0  0
  -31.9171  -22.5622  -23.3065 O   0  0  0  0  0  0
  -31.1142  -22.8659  -22.1699 C   0  0  0  0  0  0
  -30.0725  -21.7865  -21.8623 C   0  0  0  0  0  0
  -28.7521  -22.0457  -21.6535 C   0  0  0  0  0  0
  -27.8307  -21.0443  -21.2853 N   0  0  0  0  0  0
  -28.2220  -19.7691  -20.7031 C   0  0  1  0  0  0
  -26.7370  -19.3607  -20.8433 C   0  0  2  0  0  0
  -26.4803  -20.8748  -21.0263 C   0  0  0  0  0  0
  -25.5417  -21.6420  -20.9772 O   0  0  0  0  0  0
  -26.1552  -18.8273  -19.6135 N   0  0  0  0  0  0
  -24.8635  -18.4932  -19.4764 C   0  0  0  0  0  0
  -24.3887  -18.1315  -18.0670 C   0  0  0  0  0  0
  -23.8672  -19.3290  -17.3271 C   0  0  0  0  0  0
  -22.6856  -19.4200  -16.6358 C   0  0  0  0  0  0
  -22.4951  -20.6856  -16.0057 C   0  0  0  0  0  0
  -23.5355  -21.5496  -16.2210 C   0  0  0  0  0  0
  -24.7691  -20.8270  -17.2137 S   0  0  0  0  0  0
  -24.0644  -18.4978  -20.4118 O   0  0  0  0  0  0
  -29.5062  -19.0337  -21.7613 S   0  0  0  0  0  0
  -30.6932  -20.3963  -21.7343 C   0  0  0  0  0  0
  -28.1682  -23.4966  -21.7466 C   0  0  0  0  0  0
  -27.5690  -23.9496  -20.7462 O   0  5  0  0  0  0
  -28.3690  -24.1152  -22.8134 O   0  0  0  0  0  0
  -30.3604  -23.1499  -24.9087 O   0  0  0  0  0  0
  -32.6103  -21.2285  -25.6096 H   0  0  0  0  0  0
  -32.2075  -22.6494  -26.5915 H   0  0  0  0  0  0
  -33.4695  -22.7549  -25.3563 H   0  0  0  0  0  0
  -30.6920  -23.8624  -22.2777 H   0  0  0  0  0  0
  -31.7809  -22.9229  -21.3092 H   0  0  0  0  0  0
  -28.5657  -19.8884  -19.6722 H   0  0  0  0  0  0
  -26.5422  -18.7508  -21.7265 H   0  0  0  0  0  0
  -26.7575  -18.7495  -18.7961 H   0  0  0  0  0  0
  -25.1948  -17.6678  -17.4996 H   0  0  0  0  0  0
  -23.6080  -17.3745  -18.1493 H   0  0  0  0  0  0
  -21.9639  -18.6207  -16.5493 H   0  0  0  0  0  0
  -21.6215  -20.9074  -15.4111 H   0  0  0  0  0  0
  -23.6683  -22.5517  -15.8432 H   0  0  0  0  0  0
  -31.3957  -20.2139  -22.5464 H   0  0  0  0  0  0
  -31.2709  -20.3575  -20.8134 H   0  0  0  0  0  0
  1  2  1  0  0  0
  1 27  1  0  0  0
  1 28  1  0  0  0
  1 29  1  0  0  0
  2  3  1  0  0  0
  2 26  2  0  0  0
  3  4  1  0  0  0
  4  5  1  0  0  0
  4 30  1  0  0  0
  4 31  1  0  0  0
  5 22  1  0  0  0
  5  6  2  0  0  0
  6  7  1  0  0  0
  6 23  1  0  0  0
  7 10  1  0  0  0
  7  8  1  0  0  0
  8  9  1  0  0  0
  8 21  1  0  0  0
  8 32  1  0  0  0
  9 10  1  0  0  0
  9 12  1  0  0  0
  9 33  1  0  0  0
 10 11  2  0  0  0
 12 13  1  0  0  0
 12 34  1  0  0  0
 13 14  1  0  0  0
 13 20  2  0  0  0
 14 15  1  0  0  0
 14 35  1  0  0  0
 14 36  1  0  0  0
 15 19  1  0  0  0
 15 16  2  0  0  0
 16 17  1  0  0  0
 16 37  1  0  0  0
 17 18  2  0  0  0
 17 38  1  0  0  0
 18 19  1  0  0  0
 18 39  1  0  0  0
 21 22  1  0  0  0
 22 40  1  0  0  0
 22 41  1  0  0  0
 23 24  1  0  0  0
 23 25  2  0  0  0
M  CHG  1  24  -1
M  END
> <s_m_entry_id>
27656

> <s_m_entry_name>
data_maestro.33

> <s_m_Source_Path>
C:\Users\olshana1\Git\GramNeg-Accumulation\Gram Negative Permeation - OmpF

> <s_m_Source_File>
data_maestro.csv

> <i_m_Source_File_Index>
33

> <s_m_job_name>
glide-dock_Nicaido_neutral

> <s_i_glide_gridfile>
3POX-grid

> <i_i_glide_lignum>
42

> <i_i_glide_rotatable_bonds>
8

> <r_i_docking_score>
-4.29974732042058

> <r_i_glide_ligand_efficiency>
-0.165374896939253

> <r_i_glide_ligand_efficiency_sa>
-0.48992248146374

> <r_i_glide_ligand_efficiency_ln>
-1.00978154957906

> <r_i_glide_gscore>
-4.29974732042058

> <r_i_glide_lipo>
-0.0402159420961097

> <r_i_glide_hbond>
-1.00132096183506

> <r_i_glide_metal>
0

> <r_i_glide_rewards>
-0.712218896631373

> <r_i_glide_evdw>
-26.4214038848877

> <r_i_glide_ecoul>
-10.0577602386475

> <r_i_glide_erotb>
0.625287901339008

> <r_i_glide_esite>
-0.341545191155543

> <r_i_glide_emodel>
-58.066652117169

> <r_i_glide_energy>
-36.4791641235352

> <r_i_glide_einternal>
1.99599766731262

> <i_i_glide_confnum>
51

> <i_i_glide_posenum>
163

> <r_i_glide_eff_state_penalty>
0

> <r_glide_res:A132_vdw>
-0.415013112636326

> <r_glide_res:A132_coul>
-47.4500755469845

> <r_glide_res:A132_hbond>
-0.233315283822918

> <r_glide_res:A132_dist>
1.88603653283368

> <r_glide_res:A132_Eint>
-48.0984039434437

> <r_glide_res:A117_vdw>
-2.34883898317641

> <r_glide_res:A117_coul>
23.0973175017145

> <r_glide_res:A117_hbond>
0

> <r_glide_res:A117_dist>
2.28512334319635

> <r_glide_res:A117_Eint>
20.7484785185381

> <r_glide_res:A113_vdw>
-3.2515435558423

> <r_glide_res:A113_coul>
21.3052428049223

> <r_glide_res:A113_hbond>
0

> <r_glide_res:A113_dist>
2.24218010582236

> <r_glide_res:A113_Eint>
18.05369924908

> <r_glide_res:A82_vdw>
0.595236905297112

> <r_glide_res:A82_coul>
-49.9291524131694

> <r_glide_res:A82_hbond>
-0.328556282494359

> <r_glide_res:A82_dist>
1.84274112735587

> <r_glide_res:A82_Eint>
-49.6624717903666

> <r_glide_res:A42_vdw>
-1.12961959718571

> <r_glide_res:A42_coul>
-34.8477043024443

> <r_glide_res:A42_hbond>
-0.119449395517781

> <r_glide_res:A42_dist>
2.20137651120555

> <r_glide_res:A42_Eint>
-36.0967732951478

> <r_glide_res:A16_vdw>
-0.639732267048367

> <r_glide_res:A16_coul>
-21.261580019713

> <r_glide_res:A16_hbond>
0

> <r_glide_res:A16_dist>
2.76636280900942

> <r_glide_res:A16_Eint>
-21.9013122867613

> <s_m_source_file>
ligprep_Nicaido_neutral.maegz

> <i_m_source_file_index>
33

> <i_lp_mmshare_version>
58128

> <i_f3d_flags>
0

> <s_lp_Force_Field>
S-OPLS

> <r_lp_Energy>
31.39315

> <b_lp_Chiralities_Consistent>
1

> <s_lp_Variant>
Cephalothin-1

> <s_epik_input>
W0NIM11DKD1PKU9bQ0gyXUMoPUMxQyg9TylbT0hdKVtDSDJdU1tDQEBIXShOMTIpW0NASF0oQzI9TylbTkhdQyg9TylbQ0gyXWMzW2NIXVtjSF1bY0hdczM=

> <s_epik_cmdline>
J2VwaWtfcHl0aG9uJywgJy1waHQnLCAnMC4wJywgJy1waCcsICc3LjQnLCAnLW50JywgJy1tYScsICc1MDAnLCAnLWltYWUnLCAnPGluZmlsZS5tYWU+JywgJy1vbWFlJywgJzxvdXRmaWxlLm1hZT4n

> <r_lp_tautomer_probability>
1

> <r_epik_Ionization_Penalty>
  0.0000

> <r_epik_Ionization_Penalty_Charging>
  0.0000

> <r_epik_Ionization_Penalty_Neutral>
  0.0000

> <r_epik_State_Penalty>
  0.0000

> <r_epik_Charging_Adjusted_Penalty>
6.16900125885048e-06

> <i_epik_Tot_Q>
-1

> <i_epik_Tot_abs_Q>
1

> <s_epik_Chemistry_Notes>
This compound has an ester and may undergo hydrolysis at high or low pH. This compound contains an acetal/aminal-like group ( X-CH(R)-Y where X, Y are N, S, or O) that may be acid/base labile, releasing an aldehyde.

> <s_m_subgroup_title>
glide-dock_Nicaido_neutral_pv1

> <s_m_subgroupid>
glide-dock_Nicaido_neutral_pv1

> <b_m_subgroup_collapsed>
0

$$$$
Cefuroxime
                    3D
 Schrodinger Suite 2022-2.
 44 46  0  0  1  0            999 V2000
  -21.4249  -25.4649  -18.2381 C   0  0  0  0  0  0
  -22.5803  -25.1497  -17.4789 O   0  0  0  0  0  0
  -23.6447  -24.9378  -18.3738 N   0  0  0  0  0  0
  -24.2120  -23.8052  -18.2116 C   0  0  0  0  0  0
  -23.7335  -22.7920  -17.2755 C   0  0  0  0  0  0
  -24.1458  -22.2799  -16.0755 C   0  0  0  0  0  0
  -23.1683  -21.3162  -15.7007 C   0  0  0  0  0  0
  -22.2378  -21.3012  -16.6965 C   0  0  0  0  0  0
  -22.5658  -22.1984  -17.6612 O   0  0  0  0  0  0
  -25.3808  -23.4011  -19.0910 C   0  0  0  0  0  0
  -26.1786  -22.4303  -18.5898 N   0  0  0  0  0  0
  -27.4103  -21.8601  -19.1749 C   0  0  1  0  0  0
  -27.1763  -21.1088  -20.5002 C   0  0  1  0  0  0
  -28.2771  -21.8866  -21.0470 N   0  0  0  0  0  0
  -28.2713  -22.8241  -20.0280 C   0  0  0  0  0  0
  -28.7072  -23.9496  -19.9254 O   0  0  0  0  0  0
  -28.6634  -21.6921  -22.3853 C   0  0  0  0  0  0
  -28.6930  -22.9499  -23.3514 C   0  0  0  0  0  0
  -28.7010  -24.0806  -22.8134 O   0  5  0  0  0  0
  -28.6154  -22.7498  -24.5890 O   0  0  0  0  0  0
  -29.0665  -20.4376  -22.7118 C   0  0  0  0  0  0
  -29.0402  -19.3210  -21.6705 C   0  0  0  0  0  0
  -27.5157  -19.3201  -20.6697 S   0  0  0  0  0  0
  -29.7966  -20.0654  -23.9940 C   0  0  0  0  0  0
  -29.0356  -19.2220  -24.8465 O   0  0  0  0  0  0
  -29.5770  -18.8652  -26.0194 C   0  0  0  0  0  0
  -28.7689  -17.9494  -26.6479 N   0  0  0  0  0  0
  -30.6372  -19.2959  -26.4735 O   0  0  0  0  0  0
  -25.5566  -23.9495  -20.1825 O   0  0  0  0  0  0
  -20.5900  -25.6577  -17.5652 H   0  0  0  0  0  0
  -21.5690  -26.3490  -18.8603 H   0  0  0  0  0  0
  -21.1439  -24.6296  -18.8823 H   0  0  0  0  0  0
  -25.0342  -22.5648  -15.5287 H   0  0  0  0  0  0
  -23.1505  -20.7017  -14.8135 H   0  0  0  0  0  0
  -21.3291  -20.7424  -16.8680 H   0  0  0  0  0  0
  -25.9324  -22.0559  -17.6840 H   0  0  0  0  0  0
  -27.9873  -21.2659  -18.4636 H   0  0  0  0  0  0
  -26.2401  -21.3680  -20.9994 H   0  0  0  0  0  0
  -29.1348  -18.3482  -22.1518 H   0  0  0  0  0  0
  -29.9021  -19.4339  -21.0109 H   0  0  0  0  0  0
  -30.1194  -20.9509  -24.5374 H   0  0  0  0  0  0
  -30.7147  -19.5472  -23.7130 H   0  0  0  0  0  0
  -27.9186  -17.6145  -26.1899 H   0  0  0  0  0  0
  -29.1135  -17.5032  -27.4838 H   0  0  0  0  0  0
  1  2  1  0  0  0
  1 30  1  0  0  0
  1 31  1  0  0  0
  1 32  1  0  0  0
  2  3  1  0  0  0
  3  4  2  3  0  0
  4  5  1  0  0  0
  4 10  1  0  0  0
  5  9  1  0  0  0
  5  6  2  0  0  0
  6  7  1  0  0  0
  6 33  1  0  0  0
  7  8  2  0  0  0
  7 34  1  0  0  0
  8  9  1  0  0  0
  8 35  1  0  0  0
 10 11  1  0  0  0
 10 29  2  0  0  0
 11 12  1  0  0  0
 11 36  1  0  0  0
 12 15  1  0  0  0
 12 13  1  0  0  0
 12 37  1  0  0  0
 13 23  1  0  0  0
 13 14  1  0  0  0
 13 38  1  0  0  0
 14 15  1  0  0  0
 14 17  1  0  0  0
 15 16  2  0  0  0
 17 18  1  0  0  0
 17 21  2  0  0  0
 18 19  1  0  0  0
 18 20  2  0  0  0
 21 22  1  0  0  0
 21 24  1  0  0  0
 22 23  1  0  0  0
 22 39  1  0  0  0
 22 40  1  0  0  0
 24 25  1  0  0  0
 24 41  1  0  0  0
 24 42  1  0  0  0
 25 26  1  0  0  0
 26 27  1  0  0  0
 26 28  2  0  0  0
 27 43  1  0  0  0
 27 44  1  0  0  0
M  CHG  1  19  -1
M  END
> <s_m_entry_id>
27657

> <s_m_entry_name>
data_maestro.10

> <s_m_Source_Path>
C:\Users\olshana1\Git\GramNeg-Accumulation\Gram Negative Permeation - OmpF

> <s_m_Source_File>
data_maestro.csv

> <i_m_Source_File_Index>
10

> <s_m_job_name>
glide-dock_Nicaido_neutral

> <s_i_glide_gridfile>
3POX-grid

> <i_i_glide_lignum>
13

> <i_i_glide_rotatable_bonds>
9

> <r_i_docking_score>
-4.2976399817768

> <r_i_glide_ligand_efficiency>
-0.148194482130235

> <r_i_glide_ligand_efficiency_sa>
-0.455300400411477

> <r_i_glide_ligand_efficiency_ln>
-0.984050577079893

> <r_i_glide_gscore>
-4.2976399817768

> <r_i_glide_lipo>
0

> <r_i_glide_hbond>
-0.959546457642764

> <r_i_glide_metal>
0

> <r_i_glide_rewards>
0.886611163726325

> <r_i_glide_evdw>
-30.9306678771973

> <r_i_glide_ecoul>
-17.2524909973145

> <r_i_glide_erotb>
0.663396273735242

> <r_i_glide_esite>
-0.753693918138575

> <r_i_glide_emodel>
-64.4032272654024

> <r_i_glide_energy>
-48.1831588745117

> <r_i_glide_einternal>
6.64105844497681

> <i_i_glide_confnum>
97

> <i_i_glide_posenum>
284

> <r_i_glide_eff_state_penalty>
0

> <r_glide_res:A132_vdw>
-1.76541683037974

> <r_glide_res:A132_coul>
-46.8238098202959

> <r_glide_res:A132_hbond>
-0.32

> <r_glide_res:A132_dist>
1.90059052402764

> <r_glide_res:A132_Eint>
-48.9092266506757

> <r_glide_res:A117_vdw>
-2.34602080081124

> <r_glide_res:A117_coul>
16.0440466500086

> <r_glide_res:A117_hbond>
-0.128172240288002

> <r_glide_res:A117_dist>
1.9424817752606

> <r_glide_res:A117_Eint>
13.5698536089094

> <r_glide_res:A113_vdw>
-3.4009890236754

> <r_glide_res:A113_coul>
23.0526957602471

> <r_glide_res:A113_hbond>
0

> <r_glide_res:A113_dist>
2.59016795586648

> <r_glide_res:A113_Eint>
19.6517067365717

> <r_glide_res:A82_vdw>
-0.0210632678058097

> <r_glide_res:A82_coul>
-52.5024371336815

> <r_glide_res:A82_hbond>
-0.332545949533118

> <r_glide_res:A82_dist>
1.91523470210791

> <r_glide_res:A82_Eint>
-52.8560463510204

> <r_glide_res:A42_vdw>
-1.3104360191236

> <r_glide_res:A42_coul>
-44.3823930134603

> <r_glide_res:A42_hbond>
-0.178828267821643

> <r_glide_res:A42_dist>
2.22895046952006

> <r_glide_res:A42_Eint>
-45.8716573004056

> <r_glide_res:A16_vdw>
-0.731553714593263

> <r_glide_res:A16_coul>
-33.2794279549058

> <r_glide_res:A16_hbond>
0

> <r_glide_res:A16_dist>
2.5111768233074

> <r_glide_res:A16_Eint>
-34.0109816694991

> <s_m_source_file>
ligprep_Nicaido_neutral.maegz

> <i_m_source_file_index>
10

> <i_lp_mmshare_version>
58128

> <i_f3d_flags>
0

> <s_lp_Force_Field>
S-OPLS

> <r_lp_Energy>
41.721283

> <b_lp_Chiralities_Consistent>
1

> <s_lp_Variant>
Cefuroxime-1

> <s_epik_input>
bzFbY0hdW2NIXVtjSF1jMS9DKD1OXE9bQ0gzXSlDKD1PKVtOSF1bQ0BASF0yQyg9TylOKFtDQEhdMjMpQyhDKD1PKVtPSF0pPUMoW0NIMl1TMylbQ0gyXU9DKD1PKVtOSDJd

> <s_epik_cmdline>
J2VwaWtfcHl0aG9uJywgJy1waHQnLCAnMC4wJywgJy1waCcsICc3LjQnLCAnLW50JywgJy1tYScsICc1MDAnLCAnLWltYWUnLCAnPGluZmlsZS5tYWU+JywgJy1vbWFlJywgJzxvdXRmaWxlLm1hZT4n

> <r_lp_tautomer_probability>
1

> <r_epik_Ionization_Penalty>
  0.0000

> <r_epik_Ionization_Penalty_Charging>
  0.0000

> <r_epik_Ionization_Penalty_Neutral>
  0.0000

> <r_epik_State_Penalty>
  0.0000

> <r_epik_Charging_Adjusted_Penalty>
8.57368987839538e-06

> <i_epik_Tot_Q>
-1

> <i_epik_Tot_abs_Q>
1

> <s_epik_Chemistry_Notes>
This compound has an ester and may undergo hydrolysis at high or low pH. This compound has an imine and may undergo hydrolysis. This compound contains an acetal/aminal-like group ( X-CH(R)-Y where X, Y are N, S, or O) that may be acid/base labile, releasing an aldehyde.

> <s_m_subgroup_title>
glide-dock_Nicaido_neutral_pv1

> <s_m_subgroupid>
glide-dock_Nicaido_neutral_pv1

> <b_m_subgroup_collapsed>
0

$$$$
Nocardicin B
                    3D
 Schrodinger Suite 2022-2.
 59 61  0  0  1  0            999 V2000
  -33.3413  -21.8168  -27.5603 O   0  0  0  0  0  0
  -34.3896  -21.2976  -27.2381 C   0  0  0  0  0  0
  -35.5708  -21.6232  -26.3083 C   0  0  2  0  0  0
  -36.1575  -20.2926  -26.7914 C   0  0  0  0  0  0
  -34.9542  -20.1015  -27.6122 N   0  0  0  0  0  0
  -34.4850  -19.0156  -28.4742 C   0  0  2  0  0  0
  -33.1882  -18.4532  -27.9507 C   0  0  0  0  0  0
  -32.1768  -18.0469  -28.8523 C   0  0  0  0  0  0
  -30.8802  -17.7116  -28.4135 C   0  0  0  0  0  0
  -30.5705  -17.7592  -27.0451 C   0  0  0  0  0  0
  -31.5844  -18.0577  -26.1201 C   0  0  0  0  0  0
  -32.8751  -18.3932  -26.5688 C   0  0  0  0  0  0
  -29.2937  -17.5418  -26.6145 O   0  0  0  0  0  0
  -35.5286  -17.8869  -28.6007 C   0  0  0  0  0  0
  -36.2613  -17.9500  -29.6131 O   0  5  0  0  0  0
  -35.6398  -17.0288  -27.6939 O   0  0  0  0  0  0
  -35.2482  -21.5623  -24.8823 N   0  0  0  0  0  0
  -36.1464  -21.7972  -23.9062 C   0  0  0  0  0  0
  -35.6750  -21.4749  -22.4805 C   0  0  0  0  0  0
  -34.3945  -20.7227  -22.3782 C   0  0  0  0  0  0
  -33.3013  -21.2813  -21.6799 C   0  0  0  0  0  0
  -32.0673  -20.6053  -21.6133 C   0  0  0  0  0  0
  -31.9001  -19.3516  -22.2505 C   0  0  0  0  0  0
  -33.0174  -18.7593  -22.8734 C   0  0  0  0  0  0
  -34.2517  -19.4317  -22.9363 C   0  0  0  0  0  0
  -30.7100  -18.6559  -22.3226 O   0  0  0  0  0  0
  -29.5081  -19.2458  -21.8329 C   0  0  0  0  0  0
  -28.9595  -20.3744  -22.7372 C   0  0  0  0  0  0
  -28.8527  -20.0066  -24.2348 C   0  0  2  0  0  0
  -28.5748  -21.2592  -25.0885 C   0  0  0  0  0  0
  -29.3713  -21.5353  -26.0141 O   0  5  0  0  0  0
  -27.5648  -21.9474  -24.8133 O   0  0  0  0  0  0
  -27.7891  -19.0118  -24.4766 N   0  3  0  0  0  0
  -36.2634  -21.8090  -21.3949 N   0  0  0  0  0  0
  -37.4801  -22.5392  -21.6211 O   0  0  0  0  0  0
  -37.2765  -22.2381  -24.1299 O   0  0  0  0  0  0
  -36.1664  -22.4876  -26.6080 H   0  0  0  0  0  0
  -37.0699  -20.4088  -27.3774 H   0  0  0  0  0  0
  -36.2872  -19.5352  -26.0151 H   0  0  0  0  0  0
  -34.3294  -19.4430  -29.4664 H   0  0  0  0  0  0
  -32.3848  -18.0501  -29.9119 H   0  0  0  0  0  0
  -30.1140  -17.4578  -29.1325 H   0  0  0  0  0  0
  -31.3670  -18.0470  -25.0630 H   0  0  0  0  0  0
  -33.6243  -18.6560  -25.8387 H   0  0  0  0  0  0
  -28.8323  -16.8720  -27.1056 H   0  0  0  0  0  0
  -34.3338  -21.2159  -24.6299 H   0  0  0  0  0  0
  -33.4012  -22.2408  -21.1958 H   0  0  0  0  0  0
  -31.2696  -21.0748  -21.0589 H   0  0  0  0  0  0
  -32.9227  -17.7820  -23.3230 H   0  0  0  0  0  0
  -35.0843  -18.9581  -23.4363 H   0  0  0  0  0  0
  -29.6334  -19.5924  -20.8091 H   0  0  0  0  0  0
  -28.7695  -18.4471  -21.7647 H   0  0  0  0  0  0
  -29.5982  -21.2541  -22.6417 H   0  0  0  0  0  0
  -27.9839  -20.6860  -22.3563 H   0  0  0  0  0  0
  -29.7987  -19.5745  -24.5554 H   0  0  0  0  0  0
  -27.8782  -18.6532  -25.4176 H   0  0  0  0  0  0
  -27.8719  -18.2428  -23.8250 H   0  0  0  0  0  0
  -37.5769  -22.4922  -22.5703 H   0  0  0  0  0  0
  -26.8877  -19.4516  -24.3667 H   0  0  0  0  0  0
  1  2  2  0  0  0
  2  5  1  0  0  0
  2  3  1  0  0  0
  3  4  1  0  0  0
  3 17  1  0  0  0
  3 37  1  0  0  0
  4  5  1  0  0  0
  4 38  1  0  0  0
  4 39  1  0  0  0
  5  6  1  0  0  0
  6  7  1  0  0  0
  6 14  1  0  0  0
  6 40  1  0  0  0
  7 12  1  0  0  0
  7  8  2  0  0  0
  8  9  1  0  0  0
  8 41  1  0  0  0
  9 10  2  0  0  0
  9 42  1  0  0  0
 10 11  1  0  0  0
 10 13  1  0  0  0
 11 12  2  0  0  0
 11 43  1  0  0  0
 12 44  1  0  0  0
 13 45  1  0  0  0
 14 15  1  0  0  0
 14 16  2  0  0  0
 17 18  1  0  0  0
 17 46  1  0  0  0
 18 19  1  0  0  0
 18 36  2  0  0  0
 19 20  1  0  0  0
 19 34  2  3  0  0
 20 25  1  0  0  0
 20 21  2  0  0  0
 21 22  1  0  0  0
 21 47  1  0  0  0
 22 23  2  0  0  0
 22 48  1  0  0  0
 23 24  1  0  0  0
 23 26  1  0  0  0
 24 25  2  0  0  0
 24 49  1  0  0  0
 25 50  1  0  0  0
 26 27  1  0  0  0
 27 28  1  0  0  0
 27 51  1  0  0  0
 27 52  1  0  0  0
 28 29  1  0  0  0
 28 53  1  0  0  0
 28 54  1  0  0  0
 29 30  1  0  0  0
 29 33  1  0  0  0
 29 55  1  0  0  0
 30 31  1  0  0  0
 30 32  2  0  0  0
 33 56  1  0  0  0
 33 57  1  0  0  0
 33 59  1  0  0  0
 34 35  1  0  0  0
 35 58  1  0  0  0
M  CHG  3  15  -1  31  -1  33   1
M  END
> <s_m_entry_id>
27658

> <s_m_entry_name>
data_maestro.29

> <s_m_Source_Path>
C:\Users\olshana1\Git\GramNeg-Accumulation\Gram Negative Permeation - OmpF

> <s_m_Source_File>
data_maestro.csv

> <i_m_Source_File_Index>
29

> <s_m_job_name>
glide-dock_Nicaido_neutral

> <s_i_glide_gridfile>
3POX-grid

> <i_i_glide_lignum>
37

> <i_i_glide_rotatable_bonds>
14

> <r_i_docking_score>
-4.27811954588001

> <r_i_glide_ligand_efficiency>
-0.118836654052222

> <r_i_glide_ligand_efficiency_sa>
-0.392389985713785

> <r_i_glide_ligand_efficiency_ln>
-0.933370103477969

> <r_i_glide_gscore>
-4.27811954588001

> <r_i_glide_lipo>
0

> <r_i_glide_hbond>
-0.79650010170933

> <r_i_glide_metal>
0

> <r_i_glide_rewards>
-0.0448406596489607

> <r_i_glide_evdw>
-29.0645084381104

> <r_i_glide_ecoul>
-17.6282501220703

> <r_i_glide_erotb>
0.900147327125679

> <r_i_glide_esite>
-0.239463171431333

> <r_i_glide_emodel>
-66.4315864579084

> <r_i_glide_energy>
-46.6927585601807

> <r_i_glide_einternal>
11.9292373657227

> <i_i_glide_confnum>
700

> <i_i_glide_posenum>
107

> <r_i_glide_eff_state_penalty>
0

> <r_glide_res:A132_vdw>
-0.189450386405951

> <r_glide_res:A132_coul>
-14.784257590321

> <r_glide_res:A132_hbond>
0

> <r_glide_res:A132_dist>
5.12000139766961

> <r_glide_res:A132_Eint>
-14.973707976727

> <r_glide_res:A117_vdw>
-3.79768922682105

> <r_glide_res:A117_coul>
-8.01014384510261

> <r_glide_res:A117_hbond>
-0.00174714220673605

> <r_glide_res:A117_dist>
2.04779141807293

> <r_glide_res:A117_Eint>
-11.8095802141304

> <r_glide_res:A113_vdw>
-3.95599927299351

> <r_glide_res:A113_coul>
11.6143581364309

> <r_glide_res:A113_hbond>
0

> <r_glide_res:A113_dist>
2.50703961015541

> <r_glide_res:A113_Eint>
7.65835886343742

> <r_glide_res:A82_vdw>
-0.723837293874295

> <r_glide_res:A82_coul>
-23.2117278433522

> <r_glide_res:A82_hbond>
0

> <r_glide_res:A82_dist>
3.53362694981487

> <r_glide_res:A82_Eint>
-23.9355651372265

> <r_glide_res:A42_vdw>
0.0828357440490279

> <r_glide_res:A42_coul>
-41.2209678382592

> <r_glide_res:A42_hbond>
-0.287703553855022

> <r_glide_res:A42_dist>
1.85283002281301

> <r_glide_res:A42_Eint>
-41.4258356480652

> <r_glide_res:A16_vdw>
-2.90031525702297

> <r_glide_res:A16_coul>
-46.1725488489733

> <r_glide_res:A16_hbond>
-0.217230715029982

> <r_glide_res:A16_dist>
2.14493820527459

> <r_glide_res:A16_Eint>
-49.2900948210263

> <s_m_source_file>
ligprep_Nicaido_neutral.maegz

> <i_m_source_file_index>
29

> <i_lp_mmshare_version>
58128

> <i_f3d_flags>
0

> <s_lp_Force_Field>
S-OPLS

> <r_lp_Energy>
65.715273

> <b_lp_Chiralities_Consistent>
1

> <s_lp_Variant>
Nocardicin B-2

> <s_epik_input>
W2NIXTFbY0hdYyhbT0hdKVtjSF1bY0hdYzFbQ0BIXShDKD1PKVtPSF0pTjJbQ0gyXVtDQEBIXShDMj1PKVtOSF1DKD1PKS9DKD1OL1tPSF0pYzNbY0hdW2NIXWMoW2NIXVtjSF0zKU9bQ0gyXVtDSDJdW0NAQEhdKFtOSDJdKUMoPU8pW09IXQ==

> <s_epik_cmdline>
J2VwaWtfcHl0aG9uJywgJy1waHQnLCAnMC4wJywgJy1waCcsICc3LjQnLCAnLW50JywgJy1tYScsICc1MDAnLCAnLWltYWUnLCAnPGluZmlsZS5tYWU+JywgJy1vbWFlJywgJzxvdXRmaWxlLm1hZT4n

> <r_lp_tautomer_probability>
1

> <r_epik_Ionization_Penalty>
  0.0116

> <r_epik_Ionization_Penalty_Charging>
  0.0086

> <r_epik_Ionization_Penalty_Neutral>
  0.0030

> <r_epik_State_Penalty>
  0.0000

> <r_epik_Charging_Adjusted_Penalty>
0.0085560600321308

> <i_epik_Tot_Q>
-1

> <i_epik_Tot_abs_Q>
3

> <s_epik_Chemistry_Notes>
This compound has an imine and may undergo hydrolysis.

> <s_m_subgroup_title>
glide-dock_Nicaido_neutral_pv1

> <s_m_subgroupid>
glide-dock_Nicaido_neutral_pv1

> <b_m_subgroup_collapsed>
0

$$$$
Cephaloglycin
                    3D
 Schrodinger Suite 2022-2.
 46 48  0  0  1  0            999 V2000
  -34.4094  -23.1832  -23.4464 C   0  0  0  0  0  0
  -32.9445  -23.2322  -23.0371 C   0  0  0  0  0  0
  -32.7005  -22.4844  -21.9469 O   0  0  0  0  0  0
  -31.3995  -22.4085  -21.3746 C   0  0  0  0  0  0
  -30.4516  -21.5279  -22.1846 C   0  0  0  0  0  0
  -29.3340  -21.9396  -22.8398 C   0  0  0  0  0  0
  -28.6408  -20.9662  -23.5753 N   0  0  0  0  0  0
  -28.1897  -19.7594  -22.9033 C   0  0  1  0  0  0
  -27.4552  -19.3953  -24.2173 C   0  0  2  0  0  0
  -27.8307  -20.8163  -24.6851 C   0  0  0  0  0  0
  -27.5689  -21.5495  -25.6131 O   0  0  0  0  0  0
  -26.0048  -19.1496  -24.0996 N   0  0  0  0  0  0
  -25.0650  -19.8949  -23.4899 C   0  0  0  0  0  0
  -23.6097  -19.3937  -23.5716 C   0  0  2  0  0  0
  -23.0470  -19.9941  -24.8219 C   0  0  0  0  0  0
  -22.6557  -19.1729  -25.9061 C   0  0  0  0  0  0
  -22.1196  -19.7172  -27.0883 C   0  0  0  0  0  0
  -21.9689  -21.1084  -27.2132 C   0  0  0  0  0  0
  -22.3402  -21.9479  -26.1502 C   0  0  0  0  0  0
  -22.8632  -21.3923  -24.9676 C   0  0  0  0  0  0
  -22.8447  -19.7746  -22.3849 N   0  0  0  0  0  0
  -25.3135  -20.9343  -22.8753 O   0  0  0  0  0  0
  -29.6493  -18.8229  -22.3071 S   0  0  0  0  0  0
  -30.9561  -20.0910  -22.3089 C   0  0  0  0  0  0
  -28.7195  -23.4030  -22.8159 C   0  0  0  0  0  0
  -29.4263  -24.3495  -22.4134 O   0  5  0  0  0  0
  -27.5419  -23.5494  -23.2133 O   0  0  0  0  0  0
  -32.1260  -23.8911  -23.6776 O   0  0  0  0  0  0
  -34.6180  -23.9291  -24.2136 H   0  0  0  0  0  0
  -35.0486  -23.3824  -22.5862 H   0  0  0  0  0  0
  -34.6565  -22.1979  -23.8412 H   0  0  0  0  0  0
  -31.0253  -23.4004  -21.1446 H   0  0  0  0  0  0
  -31.5152  -21.9195  -20.4133 H   0  0  0  0  0  0
  -27.5320  -19.9980  -22.0664 H   0  0  0  0  0  0
  -27.9696  -18.5995  -24.7577 H   0  0  0  0  0  0
  -25.6700  -18.3032  -24.5567 H   0  0  0  0  0  0
  -23.6163  -18.3044  -23.6286 H   0  0  0  0  0  0
  -22.7688  -18.1010  -25.8350 H   0  0  0  0  0  0
  -21.8366  -19.0667  -27.9031 H   0  0  0  0  0  0
  -21.5716  -21.5362  -28.1214 H   0  0  0  0  0  0
  -22.2182  -23.0163  -26.2437 H   0  0  0  0  0  0
  -23.1379  -22.0493  -24.1556 H   0  0  0  0  0  0
  -22.5362  -18.9559  -21.8806 H   0  0  0  0  0  0
  -23.4485  -20.2773  -21.7478 H   0  0  0  0  0  0
  -31.5381  -20.0067  -23.2263 H   0  0  0  0  0  0
  -31.6294  -19.8557  -21.4832 H   0  0  0  0  0  0
  1  2  1  0  0  0
  1 29  1  0  0  0
  1 30  1  0  0  0
  1 31  1  0  0  0
  2  3  1  0  0  0
  2 28  2  0  0  0
  3  4  1  0  0  0
  4  5  1  0  0  0
  4 32  1  0  0  0
  4 33  1  0  0  0
  5 24  1  0  0  0
  5  6  2  0  0  0
  6  7  1  0  0  0
  6 25  1  0  0  0
  7 10  1  0  0  0
  7  8  1  0  0  0
  8  9  1  0  0  0
  8 23  1  0  0  0
  8 34  1  0  0  0
  9 10  1  0  0  0
  9 12  1  0  0  0
  9 35  1  0  0  0
 10 11  2  0  0  0
 12 13  1  0  0  0
 12 36  1  0  0  0
 13 14  1  0  0  0
 13 22  2  0  0  0
 14 15  1  0  0  0
 14 21  1  0  0  0
 14 37  1  0  0  0
 15 20  1  0  0  0
 15 16  2  0  0  0
 16 17  1  0  0  0
 16 38  1  0  0  0
 17 18  2  0  0  0
 17 39  1  0  0  0
 18 19  1  0  0  0
 18 40  1  0  0  0
 19 20  2  0  0  0
 19 41  1  0  0  0
 20 42  1  0  0  0
 21 43  1  0  0  0
 21 44  1  0  0  0
 23 24  1  0  0  0
 24 45  1  0  0  0
 24 46  1  0  0  0
 25 26  1  0  0  0
 25 27  2  0  0  0
M  CHG  1  26  -1
M  END
> <s_m_entry_id>
27659

> <s_m_entry_name>
data_maestro.16

> <s_m_Source_Path>
C:\Users\olshana1\Git\GramNeg-Accumulation\Gram Negative Permeation - OmpF

> <s_m_Source_File>
data_maestro.csv

> <i_m_Source_File_Index>
16

> <s_m_job_name>
glide-dock_Nicaido_neutral

> <s_i_glide_gridfile>
3POX-grid

> <i_i_glide_lignum>
21

> <i_i_glide_rotatable_bonds>
8

> <r_i_docking_score>
-4.27446315626358

> <r_i_glide_ligand_efficiency>
-0.152659398437985

> <r_i_glide_ligand_efficiency_sa>
-0.463563845235061

> <r_i_glide_ligand_efficiency_ln>
-0.986671600157377

> <r_i_glide_gscore>
-4.38586315626358

> <r_i_glide_lipo>
-0.34053189016276

> <r_i_glide_hbond>
-0.72

> <r_i_glide_metal>
0

> <r_i_glide_rewards>
-0.65168008377026

> <r_i_glide_evdw>
-25.9301853179932

> <r_i_glide_ecoul>
-10.3209476470947

> <r_i_glide_erotb>
0.600502745111863

> <r_i_glide_esite>
-0.429502514478551

> <r_i_glide_emodel>
-57.6180102512848

> <r_i_glide_energy>
-36.2511329650879

> <r_i_glide_einternal>
5.15650749206543

> <i_i_glide_confnum>
110

> <i_i_glide_posenum>
126

> <r_i_glide_eff_state_penalty>
0.1114

> <r_glide_res:A132_vdw>
-1.25704101118205

> <r_glide_res:A132_coul>
-38.9571782831844

> <r_glide_res:A132_hbond>
0

> <r_glide_res:A132_dist>
2.62992996225661

> <r_glide_res:A132_Eint>
-40.2142192943665

> <r_glide_res:A117_vdw>
-4.45845374438932

> <r_glide_res:A117_coul>
7.48234279959754

> <r_glide_res:A117_hbond>
-0.16

> <r_glide_res:A117_dist>
1.97875332124333

> <r_glide_res:A117_Eint>
2.86388905520822

> <r_glide_res:A113_vdw>
-2.8461250788658

> <r_glide_res:A113_coul>
23.5387276498204

> <r_glide_res:A113_hbond>
0

> <r_glide_res:A113_dist>
2.2837264964587

> <r_glide_res:A113_Eint>
20.6926025709546

> <r_glide_res:A82_vdw>
1.84846613727117

> <r_glide_res:A82_coul>
-59.682414179936

> <r_glide_res:A82_hbond>
-0.4

> <r_glide_res:A82_dist>
1.7362192047568

> <r_glide_res:A82_Eint>
-58.2339480426648

> <r_glide_res:A42_vdw>
0.450692490673672

> <r_glide_res:A42_coul>
-45.1000225324567

> <r_glide_res:A42_hbond>
-0.16

> <r_glide_res:A42_dist>
1.71455172721428

> <r_glide_res:A42_Eint>
-44.809330041783

> <r_glide_res:A16_vdw>
-0.541262209989201

> <r_glide_res:A16_coul>
-25.1836725811491

> <r_glide_res:A16_hbond>
0

> <r_glide_res:A16_dist>
3.72189654102748

> <r_glide_res:A16_Eint>
-25.7249347911383

> <s_m_source_file>
ligprep_Nicaido_neutral.maegz

> <i_m_source_file_index>
16

> <i_lp_mmshare_version>
58128

> <i_f3d_flags>
0

> <s_lp_Force_Field>
S-OPLS

> <r_lp_Energy>
48.658328

> <b_lp_Chiralities_Consistent>
1

> <s_lp_Variant>
Cephaloglycin-1

> <s_epik_input>
W0NIM11DKD1PKU9bQ0gyXUMoPUMxQyg9TylbT0hdKVtDSDJdU1tDQEBIXShOMTIpW0NASF0oQzI9TylbTkhdQyg9TylbQ0BASF0oW05IMl0pYzNbY0hdW2NIXVtjSF1bY0hdW2NIXTM=

> <s_epik_cmdline>
J2VwaWtfcHl0aG9uJywgJy1waHQnLCAnMC4wJywgJy1waCcsICc3LjQnLCAnLW50JywgJy1tYScsICc1MDAnLCAnLWltYWUnLCAnPGluZmlsZS5tYWU+JywgJy1vbWFlJywgJzxvdXRmaWxlLm1hZT4n

> <r_epik_Ionization_Penalty>
  0.1114

> <r_epik_Ionization_Penalty_Charging>
  0.0000

> <r_epik_Ionization_Penalty_Neutral>
  0.1114

> <r_epik_State_Penalty>
  0.1114

> <r_epik_Charging_Adjusted_Penalty>
0.111378695294398

> <i_epik_Tot_Q>
-1

> <i_epik_Tot_abs_Q>
1

> <s_epik_Chemistry_Notes>
This compound has an ester and may undergo hydrolysis at high or low pH. This compound contains an acetal/aminal-like group ( X-CH(R)-Y where X, Y are N, S, or O) that may be acid/base labile, releasing an aldehyde.

> <s_m_subgroup_title>
glide-dock_Nicaido_neutral_pv1

> <s_m_subgroupid>
glide-dock_Nicaido_neutral_pv1

> <b_m_subgroup_collapsed>
0

$$$$
Ofloxacin
                    3D
 Schrodinger Suite 2022-2.
 46 49  0  0  1  0            999 V2000
  -28.3212  -21.5195  -18.6932 C   0  0  0  0  0  0
  -27.1276  -20.6960  -19.2138 C   0  0  1  0  0  0
  -26.0366  -20.6911  -18.1485 C   0  0  0  0  0  0
  -25.0246  -19.7847  -18.5209 O   0  0  0  0  0  0
  -24.5953  -19.9033  -19.8197 C   0  0  0  0  0  0
  -25.3258  -20.5651  -20.8419 C   0  0  0  0  0  0
  -26.5753  -21.1747  -20.4922 N   0  0  0  0  0  0
  -27.2947  -21.9329  -21.4092 C   0  0  0  0  0  0
  -26.9686  -22.1341  -22.7007 C   0  0  0  0  0  0
  -25.7390  -21.4707  -23.2058 C   0  0  0  0  0  0
  -24.9436  -20.7081  -22.1985 C   0  0  0  0  0  0
  -23.7186  -20.0901  -22.5321 C   0  0  0  0  0  0
  -22.9377  -19.4207  -21.5696 C   0  0  0  0  0  0
  -21.7592  -18.8679  -21.9460 F   0  0  0  0  0  0
  -23.3571  -19.3395  -20.2210 C   0  0  0  0  0  0
  -22.5217  -18.6711  -19.3041 N   0  0  0  0  0  0
  -22.9425  -17.2979  -19.0701 C   0  0  0  0  0  0
  -21.8976  -16.5330  -18.2455 C   0  0  0  0  0  0
  -21.5646  -17.2605  -16.9968 N   0  3  0  0  0  0
  -21.0846  -18.6350  -17.2870 C   0  0  0  0  0  0
  -22.1228  -19.4183  -18.1112 C   0  0  0  0  0  0
  -20.6337  -16.5071  -16.1294 C   0  0  0  0  0  0
  -25.3539  -21.5915  -24.3709 O   0  0  0  0  0  0
  -27.9119  -23.0031  -23.5890 C   0  0  0  0  0  0
  -28.4896  -23.9496  -23.0036 O   0  5  0  0  0  0
  -27.9699  -22.7496  -24.8134 O   0  0  0  0  0  0
  -28.6622  -21.1496  -17.7265 H   0  0  0  0  0  0
  -29.1690  -21.4485  -19.3694 H   0  0  0  0  0  0
  -28.0681  -22.5717  -18.5671 H   0  0  0  0  0  0
  -27.4728  -19.6717  -19.3668 H   0  0  0  0  0  0
  -26.4481  -20.3490  -17.2067 H   0  0  0  0  0  0
  -25.6185  -21.6861  -17.9886 H   0  0  0  0  0  0
  -28.1849  -22.3960  -21.0145 H   0  0  0  0  0  0
  -23.3538  -20.1344  -23.5483 H   0  0  0  0  0  0
  -23.0774  -16.8014  -20.0290 H   0  0  0  0  0  0
  -23.9073  -17.2889  -18.5610 H   0  0  0  0  0  0
  -22.2902  -15.5495  -18.0133 H   0  0  0  0  0  0
  -20.9915  -16.3855  -18.8354 H   0  0  0  0  0  0
  -20.8839  -19.1644  -16.3546 H   0  0  0  0  0  0
  -20.1416  -18.5804  -17.8329 H   0  0  0  0  0  0
  -22.9797  -19.6164  -17.4701 H   0  0  0  0  0  0
  -21.7142  -20.3857  -18.4052 H   0  0  0  0  0  0
  -19.6850  -16.3184  -16.6338 H   0  0  0  0  0  0
  -21.0661  -15.5497  -15.8499 H   0  0  0  0  0  0
  -20.4342  -17.0547  -15.2078 H   0  0  0  0  0  0
  -22.4295  -17.3484  -16.4787 H   0  0  0  0  0  0
  1  2  1  0  0  0
  1 27  1  0  0  0
  1 28  1  0  0  0
  1 29  1  0  0  0
  2  7  1  0  0  0
  2  3  1  0  0  0
  2 30  1  0  0  0
  3  4  1  0  0  0
  3 31  1  0  0  0
  3 32  1  0  0  0
  4  5  1  0  0  0
  5 15  1  0  0  0
  5  6  2  0  0  0
  6 11  1  0  0  0
  6  7  1  0  0  0
  7  8  1  0  0  0
  8  9  2  0  0  0
  8 33  1  0  0  0
  9 10  1  0  0  0
  9 24  1  0  0  0
 10 11  1  0  0  0
 10 23  2  0  0  0
 11 12  2  0  0  0
 12 13  1  0  0  0
 12 34  1  0  0  0
 13 14  1  0  0  0
 13 15  2  0  0  0
 15 16  1  0  0  0
 16 21  1  0  0  0
 16 17  1  0  0  0
 17 18  1  0  0  0
 17 35  1  0  0  0
 17 36  1  0  0  0
 18 19  1  0  0  0
 18 37  1  0  0  0
 18 38  1  0  0  0
 19 20  1  0  0  0
 19 22  1  0  0  0
 19 46  1  0  0  0
 20 21  1  0  0  0
 20 39  1  0  0  0
 20 40  1  0  0  0
 21 41  1  0  0  0
 21 42  1  0  0  0
 22 43  1  0  0  0
 22 44  1  0  0  0
 22 45  1  0  0  0
 24 25  1  0  0  0
 24 26  2  0  0  0
M  CHG  2  19   1  25  -1
M  END
> <s_m_entry_id>
27660

> <s_m_entry_name>
data_maestro.32

> <s_m_Source_Path>
C:\Users\olshana1\Git\GramNeg-Accumulation\Gram Negative Permeation - OmpF

> <s_m_Source_File>
data_maestro.csv

> <i_m_Source_File_Index>
32

> <s_m_job_name>
glide-dock_Nicaido_neutral

> <s_i_glide_gridfile>
3POX-grid

> <i_i_glide_lignum>
41

> <i_i_glide_rotatable_bonds>
2

> <r_i_docking_score>
-4.26597277959586

> <r_i_glide_ligand_efficiency>
-0.164075876138302

> <r_i_glide_ligand_efficiency_sa>
-0.486074137452323

> <r_i_glide_ligand_efficiency_ln>
-1.00184970948968

> <r_i_glide_gscore>
-4.26597277959586

> <r_i_glide_lipo>
-0.247699219161773

> <r_i_glide_hbond>
-0.57389057960109

> <r_i_glide_metal>
0

> <r_i_glide_rewards>
-1.17022157045454

> <r_i_glide_evdw>
-18.1538600921631

> <r_i_glide_ecoul>
-8.86357402801514

> <r_i_glide_erotb>
0.146950134654495

> <r_i_glide_esite>
-0.183882436222518

> <r_i_glide_emodel>
-46.7431667461248

> <r_i_glide_energy>
-27.0174341201782

> <r_i_glide_einternal>
1.27994859218597

> <i_i_glide_confnum>
2

> <i_i_glide_posenum>
383

> <r_i_glide_eff_state_penalty>
0

> <r_glide_res:A132_vdw>
-1.21290543782421

> <r_glide_res:A132_coul>
-17.1246085648566

> <r_glide_res:A132_hbond>
0

> <r_glide_res:A132_dist>
3.06629502863864

> <r_glide_res:A132_Eint>
-18.3375140026808

> <r_glide_res:A117_vdw>
-1.80848674093591

> <r_glide_res:A117_coul>
7.95973429982553

> <r_glide_res:A117_hbond>
0

> <r_glide_res:A117_dist>
3.99189402395594

> <r_glide_res:A117_Eint>
6.15124755888962

> <r_glide_res:A113_vdw>
-0.503900013803847

> <r_glide_res:A113_coul>
4.91765730578404

> <r_glide_res:A113_hbond>
0

> <r_glide_res:A113_dist>
2.43389111416391

> <r_glide_res:A113_Eint>
4.41375729198019

> <r_glide_res:A82_vdw>
0.907669109273111

> <r_glide_res:A82_coul>
-34.4388969740912

> <r_glide_res:A82_hbond>
-0.311151084297134

> <r_glide_res:A82_dist>
1.95475297128558

> <r_glide_res:A82_Eint>
-33.8423789491152

> <r_glide_res:A42_vdw>
1.50051544980553

> <r_glide_res:A42_coul>
-37.6145838476157

> <r_glide_res:A42_hbond>
-0.262739495303956

> <r_glide_res:A42_dist>
1.76653531392963

> <r_glide_res:A42_Eint>
-36.3768078931141

> <r_glide_res:A16_vdw>
-0.172045409602275

> <r_glide_res:A16_coul>
-16.8707601477305

> <r_glide_res:A16_hbond>
0

> <r_glide_res:A16_dist>
4.3417015887034

> <r_glide_res:A16_Eint>
-17.0428055573328

> <s_m_source_file>
ligprep_Nicaido_neutral.maegz

> <i_m_source_file_index>
32

> <i_lp_mmshare_version>
58128

> <i_f3d_flags>
0

> <s_lp_Force_Field>
S-OPLS

> <r_lp_Energy>
60.370079

> <b_lp_Chiralities_Consistent>
1

> <s_lp_Variant>
Ofloxacin-1

> <s_epik_input>
TzFbQ0gyXVtDQEhdKFtDSDNdKW4oYzJjMTMpW2NIXWMoQyg9TylbT0hdKWMoPU8pYzJbY0hdYyhGKWMzTjRbQ0gyXVtDSDJdTihbQ0gzXSlbQ0gyXVtDSDJdNA==

> <s_epik_cmdline>
J2VwaWtfcHl0aG9uJywgJy1waHQnLCAnMC4wJywgJy1waCcsICc3LjQnLCAnLW50JywgJy1tYScsICc1MDAnLCAnLWltYWUnLCAnPGluZmlsZS5tYWU+JywgJy1vbWFlJywgJzxvdXRmaWxlLm1hZT4n

> <r_lp_tautomer_probability>
1

> <r_epik_Ionization_Penalty>
  0.1907

> <r_epik_Ionization_Penalty_Charging>
  0.1907

> <r_epik_Ionization_Penalty_Neutral>
  0.0000

> <r_epik_State_Penalty>
  0.0000

> <r_epik_Charging_Adjusted_Penalty>
0.190712686691679

> <i_epik_Tot_Q>
0

> <i_epik_Tot_abs_Q>
2

> <s_m_subgroup_title>
glide-dock_Nicaido_neutral_pv1

> <s_m_subgroupid>
glide-dock_Nicaido_neutral_pv1

> <b_m_subgroup_collapsed>
0

$$$$
Ceftizoxime
                    3D
 Schrodinger Suite 2022-2.
 37 39  0  0  1  0            999 V2000
  -27.9410  -26.4055  -17.3063 C   0  0  0  0  0  0
  -27.9968  -25.5229  -18.4105 O   0  0  0  0  0  0
  -27.1057  -24.4540  -18.2262 N   0  0  0  0  0  0
  -27.4347  -23.3655  -18.8162 C   0  0  0  0  0  0
  -26.5177  -22.1860  -18.6958 C   0  0  0  0  0  0
  -25.8245  -21.9500  -17.5308 C   0  0  0  0  0  0
  -24.8409  -20.5120  -17.6133 S   0  0  0  0  0  0
  -25.3721  -20.2972  -19.2687 C   0  0  0  0  0  0
  -24.9542  -19.2276  -20.0371 N   0  0  0  0  0  0
  -26.1916  -21.2549  -19.6979 N   0  0  0  0  0  0
  -28.7096  -23.1665  -19.6526 C   0  0  0  0  0  0
  -28.9117  -21.9241  -20.1127 N   0  0  0  0  0  0
  -29.9677  -21.5620  -21.0525 C   0  0  1  0  0  0
  -29.6158  -20.2792  -21.8357 C   0  0  1  0  0  0
  -29.7481  -21.0765  -23.0387 N   0  0  0  0  0  0
  -29.8195  -22.2983  -22.4081 C   0  0  0  0  0  0
  -29.7400  -23.4417  -22.8135 O   0  0  0  0  0  0
  -29.5710  -20.5396  -24.3127 C   0  0  0  0  0  0
  -29.2116  -21.5495  -25.4265 C   0  0  0  0  0  0
  -28.2692  -22.3490  -25.2133 O   0  5  0  0  0  0
  -29.9689  -21.5496  -26.4137 O   0  0  0  0  0  0
  -29.6935  -19.2189  -24.5624 C   0  0  0  0  0  0
  -30.0610  -18.1589  -23.5343 C   0  0  0  0  0  0
  -30.7442  -18.8540  -22.0000 S   0  0  0  0  0  0
  -29.4706  -24.0941  -19.9375 O   0  0  0  0  0  0
  -28.5464  -27.2825  -17.5315 H   0  0  0  0  0  0
  -26.9260  -26.7496  -17.0992 H   0  0  0  0  0  0
  -28.3689  -25.9495  -16.4134 H   0  0  0  0  0  0
  -25.8727  -22.5107  -16.6069 H   0  0  0  0  0  0
  -25.4742  -19.0113  -20.8770 H   0  0  0  0  0  0
  -24.5654  -18.4260  -19.5618 H   0  0  0  0  0  0
  -28.2711  -21.1912  -19.8356 H   0  0  0  0  0  0
  -30.9725  -21.5515  -20.6294 H   0  0  0  0  0  0
  -28.5833  -19.9470  -21.7017 H   0  0  0  0  0  0
  -29.5150  -18.8518  -25.5628 H   0  0  0  0  0  0
  -29.1694  -17.5830  -23.3013 H   0  0  0  0  0  0
  -30.7889  -17.4679  -23.9599 H   0  0  0  0  0  0
  1  2  1  0  0  0
  1 26  1  0  0  0
  1 27  1  0  0  0
  1 28  1  0  0  0
  2  3  1  0  0  0
  3  4  2  3  0  0
  4  5  1  0  0  0
  4 11  1  0  0  0
  5 10  1  0  0  0
  5  6  2  0  0  0
  6  7  1  0  0  0
  6 29  1  0  0  0
  7  8  1  0  0  0
  8  9  1  0  0  0
  8 10  2  0  0  0
  9 30  1  0  0  0
  9 31  1  0  0  0
 11 12  1  0  0  0
 11 25  2  0  0  0
 12 13  1  0  0  0
 12 32  1  0  0  0
 13 16  1  0  0  0
 13 14  1  0  0  0
 13 33  1  0  0  0
 14 24  1  0  0  0
 14 15  1  0  0  0
 14 34  1  0  0  0
 15 16  1  0  0  0
 15 18  1  0  0  0
 16 17  2  0  0  0
 18 19  1  0  0  0
 18 22  2  0  0  0
 19 20  1  0  0  0
 19 21  2  0  0  0
 22 23  1  0  0  0
 22 35  1  0  0  0
 23 24  1  0  0  0
 23 36  1  0  0  0
 23 37  1  0  0  0
M  CHG  1  20  -1
M  END
> <s_m_entry_id>
27661

> <s_m_entry_name>
data_maestro.5

> <s_m_Source_Path>
C:\Users\olshana1\Git\GramNeg-Accumulation\Gram Negative Permeation - OmpF

> <s_m_Source_File>
data_maestro.csv

> <i_m_Source_File_Index>
5

> <s_m_job_name>
glide-dock_Nicaido_neutral

> <s_i_glide_gridfile>
3POX-grid

> <i_i_glide_lignum>
6

> <i_i_glide_rotatable_bonds>
6

> <r_i_docking_score>
-4.26184671939264

> <r_i_glide_ligand_efficiency>
-0.170473868775706

> <r_i_glide_ligand_efficiency_sa>
-0.498468615667099

> <r_i_glide_ligand_efficiency_ln>
-1.01018538973609

> <r_i_glide_gscore>
-4.26184671939264

> <r_i_glide_lipo>
0

> <r_i_glide_hbond>
-0.772083884494995

> <r_i_glide_metal>
0

> <r_i_glide_rewards>
-0.666427542275305

> <r_i_glide_evdw>
-27.1734085083008

> <r_i_glide_ecoul>
-9.30602169036865

> <r_i_glide_erotb>
0.664075194683877

> <r_i_glide_esite>
-0.73283680833588

> <r_i_glide_emodel>
-54.7004045627825

> <r_i_glide_energy>
-36.4794301986694

> <r_i_glide_einternal>
3.86049723625183

> <i_i_glide_confnum>
17

> <i_i_glide_posenum>
360

> <r_i_glide_eff_state_penalty>
0

> <r_glide_res:A132_vdw>
-0.237008136122291

> <r_glide_res:A132_coul>
-33.3303137134284

> <r_glide_res:A132_hbond>
-0.130688752978891

> <r_glide_res:A132_dist>
2.09629145272452

> <r_glide_res:A132_Eint>
-33.6980106025296

> <r_glide_res:A117_vdw>
-2.48598884411517

> <r_glide_res:A117_coul>
22.0436618876018

> <r_glide_res:A117_hbond>
0

> <r_glide_res:A117_dist>
2.20661713109429

> <r_glide_res:A117_Eint>
19.5576730434866

> <r_glide_res:A113_vdw>
-3.34597160065377

> <r_glide_res:A113_coul>
18.8413098075576

> <r_glide_res:A113_hbond>
0

> <r_glide_res:A113_dist>
2.53758789344066

> <r_glide_res:A113_Eint>
15.4953382069038

> <r_glide_res:A82_vdw>
-1.67183598053687

> <r_glide_res:A82_coul>
-40.5637146544808

> <r_glide_res:A82_hbond>
-0.0566854324284046

> <r_glide_res:A82_dist>
2.35828641892899

> <r_glide_res:A82_Eint>
-42.2922360674461

> <r_glide_res:A42_vdw>
1.08960102177691

> <r_glide_res:A42_coul>
-53.6953245767276

> <r_glide_res:A42_hbond>
-0.3847096990877

> <r_glide_res:A42_dist>
1.82739714512532

> <r_glide_res:A42_Eint>
-52.9904332540384

> <r_glide_res:A16_vdw>
0.623886916452258

> <r_glide_res:A16_coul>
-48.7877280587288

> <r_glide_res:A16_hbond>
-0.2

> <r_glide_res:A16_dist>
1.77930515462815

> <r_glide_res:A16_Eint>
-48.3638411422766

> <s_m_source_file>
ligprep_Nicaido_neutral.maegz

> <i_m_source_file_index>
5

> <i_lp_mmshare_version>
58128

> <i_f3d_flags>
0

> <s_lp_Force_Field>
S-OPLS

> <r_lp_Energy>
52.500132

> <b_lp_Chiralities_Consistent>
1

> <s_lp_Variant>
Ceftizoxime-2

> <s_epik_input>
W05IMl1jKG4xKXNbY0hdYzEvQyg9TlxPW0NIM10pQyg9TylbTkhdW0NAQEhdMkMoPU8pTihbQ0BIXTIzKUMoQyg9TylbT0hdKT1bQ0hdW0NIMl1TMw==

> <s_epik_cmdline>
J2VwaWtfcHl0aG9uJywgJy1waHQnLCAnMC4wJywgJy1waCcsICc3LjQnLCAnLW50JywgJy1tYScsICc1MDAnLCAnLWltYWUnLCAnPGluZmlsZS5tYWU+JywgJy1vbWFlJywgJzxvdXRmaWxlLm1hZT4n

> <r_lp_tautomer_probability>
1

> <r_epik_Ionization_Penalty>
  0.0005

> <r_epik_Ionization_Penalty_Charging>
  0.0000

> <r_epik_Ionization_Penalty_Neutral>
  0.0005

> <r_epik_State_Penalty>
  0.0000

> <r_epik_Charging_Adjusted_Penalty>
4.86746471452517e-05

> <i_epik_Tot_Q>
-1

> <i_epik_Tot_abs_Q>
1

> <s_epik_Chemistry_Notes>
This compound has an imine and may undergo hydrolysis. This compound contains an acetal/aminal-like group ( X-CH(R)-Y where X, Y are N, S, or O) that may be acid/base labile, releasing an aldehyde.

> <s_m_subgroup_title>
glide-dock_Nicaido_neutral_pv1

> <s_m_subgroupid>
glide-dock_Nicaido_neutral_pv1

> <b_m_subgroup_collapsed>
0

$$$$
Ceftizoxime
                    3D
 Schrodinger Suite 2022-2.
 37 39  0  0  1  0            999 V2000
  -23.5373  -23.8146  -17.2134 C   0  0  0  0  0  0
  -23.9886  -22.8268  -18.1154 O   0  0  0  0  0  0
  -25.2345  -23.2417  -18.6037 N   0  0  0  0  0  0
  -25.9339  -22.2849  -19.0724 C   0  0  0  0  0  0
  -25.5092  -20.8476  -19.0473 C   0  0  0  0  0  0
  -25.3503  -20.1165  -20.2063 C   0  0  0  0  0  0
  -24.8016  -18.4916  -19.8939 S   0  0  0  0  0  0
  -24.7689  -18.8769  -18.1827 C   0  0  0  0  0  0
  -24.3632  -17.9496  -17.2420 N   0  0  0  0  0  0
  -25.1683  -20.1173  -17.8993 N   0  0  0  0  0  0
  -27.2768  -22.6094  -19.7138 C   0  0  0  0  0  0
  -28.0264  -21.5361  -20.0320 N   0  0  0  0  0  0
  -29.2407  -21.5092  -20.8546 C   0  0  1  0  0  0
  -29.2685  -20.2366  -21.7312 C   0  0  1  0  0  0
  -29.4448  -21.1106  -22.8768 N   0  0  0  0  0  0
  -29.1558  -22.2848  -22.1996 C   0  0  0  0  0  0
  -28.9365  -23.4230  -22.5671 O   0  0  0  0  0  0
  -29.6287  -20.6079  -24.1771 C   0  0  0  0  0  0
  -29.2841  -21.5495  -25.3739 C   0  0  0  0  0  0
  -29.9691  -21.4264  -26.4134 O   0  5  0  0  0  0
  -28.3357  -22.3496  -25.2134 O   0  0  0  0  0  0
  -30.0300  -19.3365  -24.4036 C   0  0  0  0  0  0
  -30.3724  -18.3029  -23.3409 C   0  0  0  0  0  0
  -30.6410  -19.0345  -21.7052 S   0  0  0  0  0  0
  -27.5999  -23.7794  -19.9549 O   0  0  0  0  0  0
  -22.5938  -23.5023  -16.7661 H   0  0  0  0  0  0
  -24.2647  -23.9496  -16.4134 H   0  0  0  0  0  0
  -23.3807  -24.7704  -17.7146 H   0  0  0  0  0  0
  -25.5212  -20.4274  -21.2266 H   0  0  0  0  0  0
  -24.6059  -18.0994  -16.2742 H   0  0  0  0  0  0
  -24.2759  -16.9775  -17.5021 H   0  0  0  0  0  0
  -27.7095  -20.6304  -19.7125 H   0  0  0  0  0  0
  -30.1652  -21.6587  -20.3004 H   0  0  0  0  0  0
  -28.3068  -19.7207  -21.7915 H   0  0  0  0  0  0
  -30.1085  -18.9834  -25.4218 H   0  0  0  0  0  0
  -29.5689  -17.5700  -23.2818 H   0  0  0  0  0  0
  -31.2742  -17.7636  -23.6314 H   0  0  0  0  0  0
  1  2  1  0  0  0
  1 26  1  0  0  0
  1 27  1  0  0  0
  1 28  1  0  0  0
  2  3  1  0  0  0
  3  4  2  3  0  0
  4  5  1  0  0  0
  4 11  1  0  0  0
  5 10  1  0  0  0
  5  6  2  0  0  0
  6  7  1  0  0  0
  6 29  1  0  0  0
  7  8  1  0  0  0
  8  9  1  0  0  0
  8 10  2  0  0  0
  9 30  1  0  0  0
  9 31  1  0  0  0
 11 12  1  0  0  0
 11 25  2  0  0  0
 12 13  1  0  0  0
 12 32  1  0  0  0
 13 16  1  0  0  0
 13 14  1  0  0  0
 13 33  1  0  0  0
 14 24  1  0  0  0
 14 15  1  0  0  0
 14 34  1  0  0  0
 15 16  1  0  0  0
 15 18  1  0  0  0
 16 17  2  0  0  0
 18 19  1  0  0  0
 18 22  2  0  0  0
 19 20  1  0  0  0
 19 21  2  0  0  0
 22 23  1  0  0  0
 22 35  1  0  0  0
 23 24  1  0  0  0
 23 36  1  0  0  0
 23 37  1  0  0  0
M  CHG  1  20  -1
M  END
> <s_m_entry_id>
27662

> <s_m_entry_name>
data_maestro.5

> <s_m_Source_Path>
C:\Users\olshana1\Git\GramNeg-Accumulation\Gram Negative Permeation - OmpF

> <s_m_Source_File>
data_maestro.csv

> <i_m_Source_File_Index>
5

> <s_m_job_name>
glide-dock_Nicaido_neutral

> <s_i_glide_gridfile>
3POX-grid

> <i_i_glide_lignum>
5

> <i_i_glide_rotatable_bonds>
6

> <r_i_docking_score>
-4.26026840911116

> <r_i_glide_ligand_efficiency>
-0.170410736364447

> <r_i_glide_ligand_efficiency_sa>
-0.49828401537692

> <r_i_glide_ligand_efficiency_ln>
-1.00981128290124

> <r_i_glide_gscore>
-4.26026840911116

> <r_i_glide_lipo>
0

> <r_i_glide_hbond>
-0.707817132632454

> <r_i_glide_metal>
0

> <r_i_glide_rewards>
-0.749994507226341

> <r_i_glide_evdw>
-30.0506763458252

> <r_i_glide_ecoul>
-9.53761863708496

> <r_i_glide_erotb>
0.664075194683877

> <r_i_glide_esite>
-0.533355351082243

> <r_i_glide_emodel>
-58.3763180807863

> <r_i_glide_energy>
-39.5882949829102

> <r_i_glide_einternal>
3.22442531585693

> <i_i_glide_confnum>
32

> <i_i_glide_posenum>
263

> <r_i_glide_eff_state_penalty>
0

> <r_glide_res:A132_vdw>
-1.72690681303207

> <r_glide_res:A132_coul>
-32.9144439086

> <r_glide_res:A132_hbond>
-0.16

> <r_glide_res:A132_dist>
2.09155242107323

> <r_glide_res:A132_Eint>
-34.8013507216321

> <r_glide_res:A117_vdw>
-3.50030185775104

> <r_glide_res:A117_coul>
21.5343627374171

> <r_glide_res:A117_hbond>
0

> <r_glide_res:A117_dist>
2.45098088532752

> <r_glide_res:A117_Eint>
18.034060879666

> <r_glide_res:A113_vdw>
-3.15894365725428

> <r_glide_res:A113_coul>
17.9147042859757

> <r_glide_res:A113_hbond>
0

> <r_glide_res:A113_dist>
2.43392099631471

> <r_glide_res:A113_Eint>
14.7557606287214

> <r_glide_res:A82_vdw>
-1.63560887918827

> <r_glide_res:A82_coul>
-38.6567691776394

> <r_glide_res:A82_hbond>
0

> <r_glide_res:A82_dist>
2.50935591482407

> <r_glide_res:A82_Eint>
-40.2923780568276

> <r_glide_res:A42_vdw>
0.615214506699013

> <r_glide_res:A42_coul>
-51.2824837086037

> <r_glide_res:A42_hbond>
-0.347817132632455

> <r_glide_res:A42_dist>
1.87944102697788

> <r_glide_res:A42_Eint>
-51.0150863345371

> <r_glide_res:A16_vdw>
0.8803531916208

> <r_glide_res:A16_coul>
-47.7643262687437

> <r_glide_res:A16_hbond>
-0.2

> <r_glide_res:A16_dist>
1.75678574791789

> <r_glide_res:A16_Eint>
-47.0839730771229

> <s_m_source_file>
ligprep_Nicaido_neutral.maegz

> <i_m_source_file_index>
5

> <i_lp_mmshare_version>
58128

> <i_f3d_flags>
0

> <s_lp_Force_Field>
S-OPLS

> <r_lp_Energy>
52.616387

> <b_lp_Chiralities_Consistent>
1

> <s_lp_Variant>
Ceftizoxime-1

> <s_epik_input>
W05IMl1jKG4xKXNbY0hdYzEvQyg9TlxPW0NIM10pQyg9TylbTkhdW0NAQEhdMkMoPU8pTihbQ0BIXTIzKUMoQyg9TylbT0hdKT1bQ0hdW0NIMl1TMw==

> <s_epik_cmdline>
J2VwaWtfcHl0aG9uJywgJy1waHQnLCAnMC4wJywgJy1waCcsICc3LjQnLCAnLW50JywgJy1tYScsICc1MDAnLCAnLWltYWUnLCAnPGluZmlsZS5tYWU+JywgJy1vbWFlJywgJzxvdXRmaWxlLm1hZT4n

> <r_lp_tautomer_probability>
1

> <r_epik_Ionization_Penalty>
  0.0005

> <r_epik_Ionization_Penalty_Charging>
  0.0000

> <r_epik_Ionization_Penalty_Neutral>
  0.0005

> <r_epik_State_Penalty>
  0.0000

> <r_epik_Charging_Adjusted_Penalty>
4.86746471452517e-05

> <i_epik_Tot_Q>
-1

> <i_epik_Tot_abs_Q>
1

> <s_epik_Chemistry_Notes>
This compound has an imine and may undergo hydrolysis. This compound contains an acetal/aminal-like group ( X-CH(R)-Y where X, Y are N, S, or O) that may be acid/base labile, releasing an aldehyde.

> <s_m_subgroup_title>
glide-dock_Nicaido_neutral_pv1

> <s_m_subgroupid>
glide-dock_Nicaido_neutral_pv1

> <b_m_subgroup_collapsed>
0

$$$$
Cephalexin
                    3D
 Schrodinger Suite 2022-2.
 40 42  0  0  1  0            999 V2000
  -32.1479  -22.4006  -21.8100 C   0  0  0  0  0  0
  -31.3236  -21.3279  -22.5089 C   0  0  0  0  0  0
  -30.8175  -21.4362  -23.7669 C   0  0  0  0  0  0
  -29.9816  -20.4409  -24.2960 N   0  0  0  0  0  0
  -29.1964  -19.5589  -23.4572 C   0  0  1  0  0  0
  -28.5961  -18.9695  -24.7485 C   0  0  2  0  0  0
  -29.4225  -20.0434  -25.4925 C   0  0  0  0  0  0
  -29.5692  -20.4406  -26.6263 O   0  0  0  0  0  0
  -27.1336  -19.1053  -24.8210 N   0  0  0  0  0  0
  -26.3705  -20.2139  -24.8000 C   0  0  0  0  0  0
  -24.8521  -19.9490  -24.7232 C   0  0  2  0  0  0
  -24.1593  -21.2268  -25.0805 C   0  0  0  0  0  0
  -23.8781  -22.2404  -24.1312 C   0  0  0  0  0  0
  -23.2490  -23.4434  -24.5062 C   0  0  0  0  0  0
  -22.8828  -23.6553  -25.8483 C   0  0  0  0  0  0
  -23.1480  -22.6632  -26.8075 C   0  0  0  0  0  0
  -23.7722  -21.4652  -26.4162 C   0  0  0  0  0  0
  -24.4770  -19.4285  -23.4097 N   0  0  0  0  0  0
  -26.8302  -21.3616  -24.8124 O   0  0  0  0  0  0
  -30.3759  -18.6552  -22.4271 S   0  0  0  0  0  0
  -31.0988  -20.1083  -21.6135 C   0  0  0  0  0  0
  -31.0126  -22.6866  -24.6958 C   0  0  0  0  0  0
  -32.1775  -23.1066  -24.8612 O   0  5  0  0  0  0
  -29.9687  -23.1497  -25.2133 O   0  0  0  0  0  0
  -31.7349  -22.5955  -20.8189 H   0  0  0  0  0  0
  -33.1729  -22.0522  -21.6810 H   0  0  0  0  0  0
  -32.1754  -23.3529  -22.3366 H   0  0  0  0  0  0
  -28.4905  -20.1225  -22.8443 H   0  0  0  0  0  0
  -28.9360  -17.9498  -24.9243 H   0  0  0  0  0  0
  -26.6281  -18.2264  -24.8562 H   0  0  0  0  0  0
  -24.6113  -19.1762  -25.4579 H   0  0  0  0  0  0
  -24.1581  -22.0911  -23.0985 H   0  0  0  0  0  0
  -23.0482  -24.1958  -23.7585 H   0  0  0  0  0  0
  -22.3967  -24.5694  -26.1516 H   0  0  0  0  0  0
  -22.8628  -22.8136  -27.8395 H   0  0  0  0  0  0
  -23.9677  -20.7149  -27.1680 H   0  0  0  0  0  0
  -24.1061  -18.4917  -23.5107 H   0  0  0  0  0  0
  -25.2947  -19.3143  -22.8259 H   0  0  0  0  0  0
  -32.0355  -19.8098  -21.1419 H   0  0  0  0  0  0
  -30.4231  -20.4119  -20.8148 H   0  0  0  0  0  0
  1  2  1  0  0  0
  1 25  1  0  0  0
  1 26  1  0  0  0
  1 27  1  0  0  0
  2 21  1  0  0  0
  2  3  2  0  0  0
  3  4  1  0  0  0
  3 22  1  0  0  0
  4  7  1  0  0  0
  4  5  1  0  0  0
  5  6  1  0  0  0
  5 20  1  0  0  0
  5 28  1  0  0  0
  6  7  1  0  0  0
  6  9  1  0  0  0
  6 29  1  0  0  0
  7  8  2  0  0  0
  9 10  1  0  0  0
  9 30  1  0  0  0
 10 11  1  0  0  0
 10 19  2  0  0  0
 11 12  1  0  0  0
 11 18  1  0  0  0
 11 31  1  0  0  0
 12 17  1  0  0  0
 12 13  2  0  0  0
 13 14  1  0  0  0
 13 32  1  0  0  0
 14 15  2  0  0  0
 14 33  1  0  0  0
 15 16  1  0  0  0
 15 34  1  0  0  0
 16 17  2  0  0  0
 16 35  1  0  0  0
 17 36  1  0  0  0
 18 37  1  0  0  0
 18 38  1  0  0  0
 20 21  1  0  0  0
 21 39  1  0  0  0
 21 40  1  0  0  0
 22 23  1  0  0  0
 22 24  2  0  0  0
M  CHG  1  23  -1
M  END
> <s_m_entry_id>
27663

> <s_m_entry_name>
data_maestro.14

> <s_m_Source_Path>
C:\Users\olshana1\Git\GramNeg-Accumulation\Gram Negative Permeation - OmpF

> <s_m_Source_File>
data_maestro.csv

> <i_m_Source_File_Index>
14

> <s_m_job_name>
glide-dock_Nicaido_neutral

> <s_i_glide_gridfile>
3POX-grid

> <i_i_glide_lignum>
19

> <i_i_glide_rotatable_bonds>
5

> <r_i_docking_score>
-4.25621782424807

> <r_i_glide_ligand_efficiency>
-0.177342409343669

> <r_i_glide_ligand_efficiency_sa>
-0.511544026804471

> <r_i_glide_ligand_efficiency_ln>
-1.01870823045227

> <r_i_glide_gscore>
-4.37141782424807

> <r_i_glide_lipo>
0

> <r_i_glide_hbond>
-0.514230425862052

> <r_i_glide_metal>
0

> <r_i_glide_rewards>
-1.04692003996919

> <r_i_glide_evdw>
-25.4244327545166

> <r_i_glide_ecoul>
-10.9127244949341

> <r_i_glide_erotb>
0.475363118437828

> <r_i_glide_esite>
-0.377500164888708

> <r_i_glide_emodel>
-53.5569467937299

> <r_i_glide_energy>
-36.3371572494507

> <r_i_glide_einternal>
5.62410354614258

> <i_i_glide_confnum>
4

> <i_i_glide_posenum>
350

> <r_i_glide_eff_state_penalty>
0.1152

> <r_glide_res:A132_vdw>
-0.417319959527622

> <r_glide_res:A132_coul>
-23.6896857508764

> <r_glide_res:A132_hbond>
0

> <r_glide_res:A132_dist>
4.34558412547088

> <r_glide_res:A132_Eint>
-24.107005710404

> <r_glide_res:A117_vdw>
-5.9111207601692

> <r_glide_res:A117_coul>
5.64961750919791

> <r_glide_res:A117_hbond>
-0.00680445401364541

> <r_glide_res:A117_dist>
2.19358288820289

> <r_glide_res:A117_Eint>
-0.268307704984935

> <r_glide_res:A113_vdw>
-1.93160362032366

> <r_glide_res:A113_coul>
20.496296117154

> <r_glide_res:A113_hbond>
0

> <r_glide_res:A113_dist>
2.27065766084392

> <r_glide_res:A113_Eint>
18.5646924968303

> <r_glide_res:A82_vdw>
-1.67716604157227

> <r_glide_res:A82_coul>
-37.0002789835927

> <r_glide_res:A82_hbond>
0

> <r_glide_res:A82_dist>
3.06645853796549

> <r_glide_res:A82_Eint>
-38.6774450251649

> <r_glide_res:A42_vdw>
-1.00268662161148

> <r_glide_res:A42_coul>
-54.5789344571892

> <r_glide_res:A42_hbond>
-0.350912292215623

> <r_glide_res:A42_dist>
1.74328870220229

> <r_glide_res:A42_Eint>
-55.9325333710163

> <r_glide_res:A16_vdw>
0.573500030426645

> <r_glide_res:A16_coul>
-45.3113397404462

> <r_glide_res:A16_hbond>
-0.156513679632783

> <r_glide_res:A16_dist>
1.80880182778712

> <r_glide_res:A16_Eint>
-44.8943533896524

> <s_m_source_file>
ligprep_Nicaido_neutral.maegz

> <i_m_source_file_index>
14

> <i_lp_mmshare_version>
58128

> <i_f3d_flags>
0

> <s_lp_Force_Field>
S-OPLS

> <r_lp_Energy>
47.820483

> <b_lp_Chiralities_Consistent>
1

> <s_lp_Variant>
Cephalexin-1

> <s_epik_input>
W09IXUMoPU8pQzE9QyhbQ0gzXSlbQ0gyXVNbQ0BASF0oTjEyKVtDQEhdKEMyPU8pW05IXUMoPU8pW0NAQEhdKFtOSDJdKWMzW2NIXVtjSF1bY0hdW2NIXVtjSF0z

> <s_epik_cmdline>
J2VwaWtfcHl0aG9uJywgJy1waHQnLCAnMC4wJywgJy1waCcsICc3LjQnLCAnLW50JywgJy1tYScsICc1MDAnLCAnLWltYWUnLCAnPGluZmlsZS5tYWU+JywgJy1vbWFlJywgJzxvdXRmaWxlLm1hZT4n

> <r_epik_Ionization_Penalty>
  0.1152

> <r_epik_Ionization_Penalty_Charging>
  0.0000

> <r_epik_Ionization_Penalty_Neutral>
  0.1152

> <r_epik_State_Penalty>
  0.1152

> <r_epik_Charging_Adjusted_Penalty>
0.115182589938214

> <i_epik_Tot_Q>
-1

> <i_epik_Tot_abs_Q>
1

> <s_epik_Chemistry_Notes>
This compound contains an acetal/aminal-like group ( X-CH(R)-Y where X, Y are N, S, or O) that may be acid/base labile, releasing an aldehyde.

> <s_m_subgroup_title>
glide-dock_Nicaido_neutral_pv1

> <s_m_subgroupid>
glide-dock_Nicaido_neutral_pv1

> <b_m_subgroup_collapsed>
0

$$$$
Cephalexin
                    3D
 Schrodinger Suite 2022-2.
 40 42  0  0  1  0            999 V2000
  -31.9454  -22.0588  -21.8929 C   0  0  0  0  0  0
  -30.8761  -21.1639  -22.5056 C   0  0  0  0  0  0
  -29.9406  -21.5881  -23.3982 C   0  0  0  0  0  0
  -28.9672  -20.7185  -23.9108 N   0  0  0  0  0  0
  -28.5122  -19.5758  -23.1468 C   0  0  1  0  0  0
  -27.4554  -19.3472  -24.2473 C   0  0  2  0  0  0
  -27.9193  -20.7137  -24.8093 C   0  0  0  0  0  0
  -27.5369  -21.5359  -25.6134 O   0  0  0  0  0  0
  -26.0856  -19.2900  -23.7058 N   0  0  0  0  0  0
  -25.3618  -20.2591  -23.1045 C   0  0  0  0  0  0
  -23.9906  -19.8731  -22.5252 C   0  0  2  0  0  0
  -24.2560  -19.6201  -21.0740 C   0  0  0  0  0  0
  -24.1313  -20.6660  -20.1272 C   0  0  0  0  0  0
  -24.3862  -20.4578  -18.7571 C   0  0  0  0  0  0
  -24.7687  -19.1854  -18.2989 C   0  0  0  0  0  0
  -24.8939  -18.1284  -19.2161 C   0  0  0  0  0  0
  -24.6469  -18.3489  -20.5858 C   0  0  0  0  0  0
  -23.3561  -18.7495  -23.2135 N   0  0  0  0  0  0
  -25.7382  -21.4267  -22.9875 O   0  0  0  0  0  0
  -29.9690  -18.5226  -22.9171 S   0  0  0  0  0  0
  -30.9468  -19.7281  -21.9763 C   0  0  0  0  0  0
  -29.8705  -23.0401  -23.9691 C   0  0  0  0  0  0
  -29.9711  -23.1496  -25.2134 O   0  5  0  0  0  0
  -29.5918  -23.9493  -23.1532 O   0  0  0  0  0  0
  -31.8150  -22.0954  -20.8105 H   0  0  0  0  0  0
  -32.9352  -21.6497  -22.0968 H   0  0  0  0  0  0
  -31.9325  -23.0830  -22.2613 H   0  0  0  0  0  0
  -28.0956  -19.8851  -22.1852 H   0  0  0  0  0  0
  -27.7001  -18.4915  -24.8786 H   0  0  0  0  0  0
  -25.6765  -18.3644  -23.7152 H   0  0  0  0  0  0
  -23.3317  -20.7352  -22.6371 H   0  0  0  0  0  0
  -23.8430  -21.6521  -20.4593 H   0  0  0  0  0  0
  -24.2938  -21.2751  -18.0573 H   0  0  0  0  0  0
  -24.9766  -19.0191  -17.2515 H   0  0  0  0  0  0
  -25.1959  -17.1513  -18.8675 H   0  0  0  0  0  0
  -24.7657  -17.5259  -21.2760 H   0  0  0  0  0  0
  -22.4608  -18.9986  -23.6065 H   0  0  0  0  0  0
  -23.9056  -18.4010  -23.9921 H   0  0  0  0  0  0
  -31.9813  -19.3853  -21.9570 H   0  0  0  0  0  0
  -30.5912  -19.7268  -20.9461 H   0  0  0  0  0  0
  1  2  1  0  0  0
  1 25  1  0  0  0
  1 26  1  0  0  0
  1 27  1  0  0  0
  2 21  1  0  0  0
  2  3  2  0  0  0
  3  4  1  0  0  0
  3 22  1  0  0  0
  4  7  1  0  0  0
  4  5  1  0  0  0
  5  6  1  0  0  0
  5 20  1  0  0  0
  5 28  1  0  0  0
  6  7  1  0  0  0
  6  9  1  0  0  0
  6 29  1  0  0  0
  7  8  2  0  0  0
  9 10  1  0  0  0
  9 30  1  0  0  0
 10 11  1  0  0  0
 10 19  2  0  0  0
 11 12  1  0  0  0
 11 18  1  0  0  0
 11 31  1  0  0  0
 12 17  1  0  0  0
 12 13  2  0  0  0
 13 14  1  0  0  0
 13 32  1  0  0  0
 14 15  2  0  0  0
 14 33  1  0  0  0
 15 16  1  0  0  0
 15 34  1  0  0  0
 16 17  2  0  0  0
 16 35  1  0  0  0
 17 36  1  0  0  0
 18 37  1  0  0  0
 18 38  1  0  0  0
 20 21  1  0  0  0
 21 39  1  0  0  0
 21 40  1  0  0  0
 22 23  1  0  0  0
 22 24  2  0  0  0
M  CHG  1  23  -1
M  END
> <s_m_entry_id>
27664

> <s_m_entry_name>
data_maestro.14

> <s_m_Source_Path>
C:\Users\olshana1\Git\GramNeg-Accumulation\Gram Negative Permeation - OmpF

> <s_m_Source_File>
data_maestro.csv

> <i_m_Source_File_Index>
14

> <s_m_job_name>
glide-dock_Nicaido_neutral

> <s_i_glide_gridfile>
3POX-grid

> <i_i_glide_lignum>
19

> <i_i_glide_rotatable_bonds>
5

> <r_i_docking_score>
-4.24775763638515

> <r_i_glide_ligand_efficiency>
-0.176989901516048

> <r_i_glide_ligand_efficiency_sa>
-0.510527218279714

> <r_i_glide_ligand_efficiency_ln>
-1.01668331928395

> <r_i_glide_gscore>
-4.36295763638515

> <r_i_glide_lipo>
-0.0193611259207857

> <r_i_glide_hbond>
-0.675421806145764

> <r_i_glide_metal>
0

> <r_i_glide_rewards>
-1.04714346723172

> <r_i_glide_evdw>
-22.2126522064209

> <r_i_glide_ecoul>
-10.7660970687866

> <r_i_glide_erotb>
0.475363118437828

> <r_i_glide_esite>
-0.370847184885677

> <r_i_glide_emodel>
-49.3728747152676

> <r_i_glide_energy>
-32.9787492752075

> <r_i_glide_einternal>
7.1991662979126

> <i_i_glide_confnum>
7

> <i_i_glide_posenum>
263

> <r_i_glide_eff_state_penalty>
0.1152

> <r_glide_res:A132_vdw>
-0.708854006234397

> <r_glide_res:A132_coul>
-30.9174346415923

> <r_glide_res:A132_hbond>
0

> <r_glide_res:A132_dist>
3.45837882373423

> <r_glide_res:A132_Eint>
-31.6262886478267

> <r_glide_res:A117_vdw>
-5.49135376092349

> <r_glide_res:A117_coul>
9.93104636528579

> <r_glide_res:A117_hbond>
-0.117026721708272

> <r_glide_res:A117_dist>
2.21802583055597

> <r_glide_res:A117_Eint>
4.32266588265403

> <r_glide_res:A113_vdw>
-2.33768424529342

> <r_glide_res:A113_coul>
23.9058272074785

> <r_glide_res:A113_hbond>
0

> <r_glide_res:A113_dist>
2.31318696442699

> <r_glide_res:A113_Eint>
21.5681429621851

> <r_glide_res:A82_vdw>
0.845303280873997

> <r_glide_res:A82_coul>
-49.5165548370356

> <r_glide_res:A82_hbond>
-0.198395084437492

> <r_glide_res:A82_dist>
1.76779052327488

> <r_glide_res:A82_Eint>
-48.8696466405991

> <r_glide_res:A42_vdw>
2.75839977812448

> <r_glide_res:A42_coul>
-54.3024446037072

> <r_glide_res:A42_hbond>
-0.36

> <r_glide_res:A42_dist>
1.71292375245543

> <r_glide_res:A42_Eint>
-51.9040448255828

> <r_glide_res:A16_vdw>
-0.702854682580186

> <r_glide_res:A16_coul>
-33.554974823426

> <r_glide_res:A16_hbond>
0

> <r_glide_res:A16_dist>
3.5361524809072

> <r_glide_res:A16_Eint>
-34.2578295060062

> <s_m_source_file>
ligprep_Nicaido_neutral.maegz

> <i_m_source_file_index>
14

> <i_lp_mmshare_version>
58128

> <i_f3d_flags>
0

> <s_lp_Force_Field>
S-OPLS

> <r_lp_Energy>
47.820483

> <b_lp_Chiralities_Consistent>
1

> <s_lp_Variant>
Cephalexin-1

> <s_epik_input>
W09IXUMoPU8pQzE9QyhbQ0gzXSlbQ0gyXVNbQ0BASF0oTjEyKVtDQEhdKEMyPU8pW05IXUMoPU8pW0NAQEhdKFtOSDJdKWMzW2NIXVtjSF1bY0hdW2NIXVtjSF0z

> <s_epik_cmdline>
J2VwaWtfcHl0aG9uJywgJy1waHQnLCAnMC4wJywgJy1waCcsICc3LjQnLCAnLW50JywgJy1tYScsICc1MDAnLCAnLWltYWUnLCAnPGluZmlsZS5tYWU+JywgJy1vbWFlJywgJzxvdXRmaWxlLm1hZT4n

> <r_epik_Ionization_Penalty>
  0.1152

> <r_epik_Ionization_Penalty_Charging>
  0.0000

> <r_epik_Ionization_Penalty_Neutral>
  0.1152

> <r_epik_State_Penalty>
  0.1152

> <r_epik_Charging_Adjusted_Penalty>
0.115182589938214

> <i_epik_Tot_Q>
-1

> <i_epik_Tot_abs_Q>
1

> <s_epik_Chemistry_Notes>
This compound contains an acetal/aminal-like group ( X-CH(R)-Y where X, Y are N, S, or O) that may be acid/base labile, releasing an aldehyde.

> <s_m_subgroup_title>
glide-dock_Nicaido_neutral_pv1

> <s_m_subgroupid>
glide-dock_Nicaido_neutral_pv1

> <b_m_subgroup_collapsed>
0

$$$$
Sulbenicillin
                    3D
 Schrodinger Suite 2022-2.
 43 45  0  0  1  0            999 V2000
  -20.0803  -23.4808  -19.2938 C   0  0  0  0  0  0
  -21.6122  -23.6306  -19.4032 C   0  0  0  0  0  0
  -22.2304  -24.8243  -18.5857 C   0  0  2  0  0  0
  -23.4306  -24.2577  -17.9880 N   0  0  0  0  0  0
  -23.6296  -22.8522  -17.6801 C   0  0  1  0  0  0
  -22.3950  -22.0904  -18.7800 S   0  0  0  0  0  0
  -25.1300  -23.0390  -17.9857 C   0  0  2  0  0  0
  -24.7631  -24.5217  -18.1539 C   0  0  0  0  0  0
  -25.3468  -25.5496  -18.4132 O   0  0  0  0  0  0
  -25.5352  -22.3673  -19.2306 N   0  0  0  0  0  0
  -26.5327  -22.7494  -20.0548 C   0  0  0  0  0  0
  -26.6816  -21.9808  -21.3851 C   0  0  2  0  0  0
  -28.0082  -21.2242  -21.5207 C   0  0  0  0  0  0
  -29.2611  -21.8700  -21.3836 C   0  0  0  0  0  0
  -30.4614  -21.1711  -21.6133 C   0  0  0  0  0  0
  -30.4290  -19.8080  -21.9542 C   0  0  0  0  0  0
  -29.1926  -19.1495  -22.0644 C   0  0  0  0  0  0
  -27.9900  -19.8529  -21.8549 C   0  0  0  0  0  0
  -26.4844  -23.1495  -22.8124 S   0  0  0  0  0  0
  -25.2901  -23.9496  -22.4991 O   0  0  0  0  0  0
  -26.3494  -22.3082  -24.0121 O   0  5  0  0  0  0
  -27.7168  -23.9496  -22.8134 O   0  0  0  0  0  0
  -27.2669  -23.7092  -19.8047 O   0  0  0  0  0  0
  -21.3244  -25.5495  -17.5605 C   0  0  0  0  0  0
  -21.5689  -25.4183  -16.3400 O   0  5  0  0  0  0
  -20.4453  -26.3240  -18.0136 O   0  0  0  0  0  0
  -21.9910  -23.7793  -20.8882 C   0  0  0  0  0  0
  -19.5615  -24.3667  -19.6608 H   0  0  0  0  0  0
  -19.7273  -22.6319  -19.8802 H   0  0  0  0  0  0
  -19.7668  -23.3078  -18.2637 H   0  0  0  0  0  0
  -22.5491  -25.6065  -19.2767 H   0  0  0  0  0  0
  -23.4263  -22.6181  -16.6332 H   0  0  0  0  0  0
  -25.7691  -22.8126  -17.1308 H   0  0  0  0  0  0
  -24.9745  -21.5713  -19.4990 H   0  0  0  0  0  0
  -25.8573  -21.2743  -21.4721 H   0  0  0  0  0  0
  -29.3176  -22.9136  -21.1148 H   0  0  0  0  0  0
  -31.4088  -21.6745  -21.4954 H   0  0  0  0  0  0
  -31.3487  -19.2629  -22.1045 H   0  0  0  0  0  0
  -29.1693  -18.0972  -22.3077 H   0  0  0  0  0  0
  -27.0548  -19.3241  -21.9662 H   0  0  0  0  0  0
  -21.5523  -24.6772  -21.3227 H   0  0  0  0  0  0
  -23.0724  -23.8433  -21.0137 H   0  0  0  0  0  0
  -21.6461  -22.9262  -21.4735 H   0  0  0  0  0  0
  1  2  1  0  0  0
  1 28  1  0  0  0
  1 29  1  0  0  0
  1 30  1  0  0  0
  2  6  1  0  0  0
  2  3  1  0  0  0
  2 27  1  0  0  0
  3  4  1  0  0  0
  3 24  1  0  0  0
  3 31  1  0  0  0
  4  8  1  0  0  0
  4  5  1  0  0  0
  5  6  1  0  0  0
  5  7  1  0  0  0
  5 32  1  0  0  0
  7  8  1  0  0  0
  7 10  1  0  0  0
  7 33  1  0  0  0
  8  9  2  0  0  0
 10 11  1  0  0  0
 10 34  1  0  0  0
 11 12  1  0  0  0
 11 23  2  0  0  0
 12 13  1  0  0  0
 12 19  1  0  0  0
 12 35  1  0  0  0
 13 18  1  0  0  0
 13 14  2  0  0  0
 14 15  1  0  0  0
 14 36  1  0  0  0
 15 16  2  0  0  0
 15 37  1  0  0  0
 16 17  1  0  0  0
 16 38  1  0  0  0
 17 18  2  0  0  0
 17 39  1  0  0  0
 18 40  1  0  0  0
 19 20  2  0  0  0
 19 21  1  0  0  0
 19 22  2  0  0  0
 24 25  1  0  0  0
 24 26  2  0  0  0
 27 41  1  0  0  0
 27 42  1  0  0  0
 27 43  1  0  0  0
M  CHG  2  21  -1  25  -1
M  END
> <s_m_entry_id>
27665

> <s_m_entry_name>
data_maestro.23

> <s_m_Source_Path>
C:\Users\olshana1\Git\GramNeg-Accumulation\Gram Negative Permeation - OmpF

> <s_m_Source_File>
data_maestro.csv

> <i_m_Source_File_Index>
23

> <s_m_job_name>
glide-dock_Nicaido_neutral

> <s_i_glide_gridfile>
3POX-grid

> <i_i_glide_lignum>
30

> <i_i_glide_rotatable_bonds>
6

> <r_i_docking_score>
-4.24061119227813

> <r_i_glide_ligand_efficiency>
-0.157059673788079

> <r_i_glide_ligand_efficiency_sa>
-0.471179020846594

> <r_i_glide_ligand_efficiency_ln>
-0.987144373622929

> <r_i_glide_gscore>
-4.24061119227813

> <r_i_glide_lipo>
0

> <r_i_glide_hbond>
-0.769942891229809

> <r_i_glide_metal>
0

> <r_i_glide_rewards>
-0.596960904014401

> <r_i_glide_evdw>
-22.3676719665527

> <r_i_glide_ecoul>
-10.1305570602417

> <r_i_glide_erotb>
0.347763984117939

> <r_i_glide_esite>
-0.583504223787968

> <r_i_glide_emodel>
-53.2820291335513

> <r_i_glide_energy>
-32.4982290267944

> <r_i_glide_einternal>
4.42069387435913

> <i_i_glide_confnum>
6

> <i_i_glide_posenum>
335

> <r_i_glide_eff_state_penalty>
0

> <r_glide_res:A132_vdw>
-3.40705112815359

> <r_glide_res:A132_coul>
-66.2849036488016

> <r_glide_res:A132_hbond>
-0.0734196491261294

> <r_glide_res:A132_dist>
2.31645087718468

> <r_glide_res:A132_Eint>
-69.7653744260813

> <r_glide_res:A117_vdw>
-1.19334653118307

> <r_glide_res:A117_coul>
34.9858181303632

> <r_glide_res:A117_hbond>
0

> <r_glide_res:A117_dist>
2.34673485974304

> <r_glide_res:A117_Eint>
33.7924715991801

> <r_glide_res:A113_vdw>
-2.38086367783668

> <r_glide_res:A113_coul>
42.5814045957473

> <r_glide_res:A113_hbond>
0

> <r_glide_res:A113_dist>
3.2545672902193

> <r_glide_res:A113_Eint>
40.2005409179106

> <r_glide_res:A82_vdw>
1.74995798330348

> <r_glide_res:A82_coul>
-63.8289570468245

> <r_glide_res:A82_hbond>
0

> <r_glide_res:A82_dist>
1.64038101568218

> <r_glide_res:A82_Eint>
-62.0789990635211

> <r_glide_res:A42_vdw>
-1.01528380909099

> <r_glide_res:A42_coul>
-51.2831927454155

> <r_glide_res:A42_hbond>
-0.0771007376653207

> <r_glide_res:A42_dist>
2.30564817153183

> <r_glide_res:A42_Eint>
-52.3755772921718

> <r_glide_res:A16_vdw>
-0.109543922693705

> <r_glide_res:A16_coul>
-32.7664168406833

> <r_glide_res:A16_hbond>
0

> <r_glide_res:A16_dist>
5.80841077792323

> <r_glide_res:A16_Eint>
-32.875960763377

> <s_m_source_file>
ligprep_Nicaido_neutral.maegz

> <i_m_source_file_index>
23

> <i_lp_mmshare_version>
58128

> <i_f3d_flags>
0

> <s_lp_Force_Field>
S-OPLS

> <r_lp_Energy>
22.166908

> <b_lp_Chiralities_Consistent>
1

> <s_lp_Variant>
Sulbenicillin-1

> <s_epik_input>
W09IXUMoPU8pW0NAQEhdMUMoW0NIM10pKFtDSDNdKVNbQ0BIXShOMTIpW0NASF0oQzI9TylbTkhdQyg9TylbQ0BASF0oUyg9TykoPU8pW09IXSljM1tjSF1bY0hdW2NIXVtjSF1bY0hdMw==

> <s_epik_cmdline>
J2VwaWtfcHl0aG9uJywgJy1waHQnLCAnMC4wJywgJy1waCcsICc3LjQnLCAnLW50JywgJy1tYScsICc1MDAnLCAnLWltYWUnLCAnPGluZmlsZS5tYWU+JywgJy1vbWFlJywgJzxvdXRmaWxlLm1hZT4n

> <r_lp_tautomer_probability>
1

> <r_epik_Ionization_Penalty>
  0.0000

> <r_epik_Ionization_Penalty_Charging>
  0.0000

> <r_epik_Ionization_Penalty_Neutral>
  0.0000

> <r_epik_State_Penalty>
  0.0000

> <r_epik_Charging_Adjusted_Penalty>
1.13251598244902e-05

> <i_epik_Tot_Q>
-2

> <i_epik_Tot_abs_Q>
2

> <s_epik_Chemistry_Notes>
This compound contains an acetal/aminal-like group ( X-CH(R)-Y where X, Y are N, S, or O) that may be acid/base labile, releasing an aldehyde.

> <s_m_subgroup_title>
glide-dock_Nicaido_neutral_pv1

> <s_m_subgroupid>
glide-dock_Nicaido_neutral_pv1

> <b_m_subgroup_collapsed>
0

$$$$
Piperacillin
                    3D
 Schrodinger Suite 2022-2.
 62 65  0  0  1  0            999 V2000
  -28.3979  -25.6970  -17.5134 C   0  0  0  0  0  0
  -28.6974  -24.1853  -17.5031 C   0  0  0  0  0  0
  -28.6908  -23.5732  -18.8335 N   0  0  0  0  0  0
  -27.7950  -22.4239  -19.0100 C   0  0  0  0  0  0
  -28.2882  -21.4807  -20.1229 C   0  0  0  0  0  0
  -28.6594  -22.2319  -21.3409 N   0  0  0  0  0  0
  -29.3261  -23.4155  -21.2200 C   0  0  0  0  0  0
  -29.5700  -23.9493  -19.7870 C   0  0  0  0  0  0
  -30.4833  -24.7501  -19.6123 O   0  0  0  0  0  0
  -29.7036  -24.1342  -22.1578 O   0  0  0  0  0  0
  -28.1574  -21.8428  -22.5357 C   0  0  0  0  0  0
  -28.2540  -20.5102  -22.7491 N   0  0  0  0  0  0
  -27.8273  -19.6812  -23.8953 C   0  0  2  0  0  0
  -29.0179  -19.3643  -24.7726 C   0  0  0  0  0  0
  -30.2770  -20.0163  -24.6819 C   0  0  0  0  0  0
  -31.3630  -19.6519  -25.5035 C   0  0  0  0  0  0
  -31.2190  -18.6189  -26.4442 C   0  0  0  0  0  0
  -29.9828  -17.9666  -26.5688 C   0  0  0  0  0  0
  -28.9080  -18.3460  -25.7464 C   0  0  0  0  0  0
  -26.7890  -20.3601  -24.8147 C   0  0  0  0  0  0
  -25.4933  -20.1440  -24.5464 N   0  0  0  0  0  0
  -24.4262  -20.9689  -25.1073 C   0  0  1  0  0  0
  -23.0584  -20.7579  -24.4290 C   0  0  2  0  0  0
  -23.1611  -22.1107  -23.9209 N   0  0  0  0  0  0
  -24.3682  -22.3806  -24.4880 C   0  0  0  0  0  0
  -25.0722  -23.3655  -24.4134 O   0  0  0  0  0  0
  -22.5124  -22.6265  -22.7477 C   0  0  2  0  0  0
  -22.2768  -21.3561  -21.8470 C   0  0  0  0  0  0
  -23.2530  -21.3962  -20.6525 C   0  0  0  0  0  0
  -22.7139  -19.8847  -22.8692 S   0  0  0  0  0  0
  -20.8446  -21.1832  -21.3044 C   0  0  0  0  0  0
  -21.3488  -23.5161  -23.2197 C   0  0  0  0  0  0
  -21.5698  -24.7494  -23.2133 O   0  5  0  0  0  0
  -20.3099  -22.9902  -23.6693 O   0  0  0  0  0  0
  -27.1512  -21.1496  -25.6866 O   0  0  0  0  0  0
  -27.7567  -22.6530  -23.3786 O   0  0  0  0  0  0
  -28.3688  -26.0820  -16.4958 H   0  0  0  0  0  0
  -29.1658  -26.2668  -18.0304 H   0  0  0  0  0  0
  -27.4351  -25.9103  -17.9768 H   0  0  0  0  0  0
  -27.9686  -23.6898  -16.8620 H   0  0  0  0  0  0
  -29.6670  -24.0007  -17.0452 H   0  0  0  0  0  0
  -27.7125  -21.8545  -18.0822 H   0  0  0  0  0  0
  -26.7966  -22.7926  -19.2450 H   0  0  0  0  0  0
  -27.5175  -20.7289  -20.2994 H   0  0  0  0  0  0
  -29.1677  -20.9355  -19.7779 H   0  0  0  0  0  0
  -28.6500  -19.9799  -21.9834 H   0  0  0  0  0  0
  -27.4044  -18.7508  -23.5121 H   0  0  0  0  0  0
  -30.4415  -20.8036  -23.9635 H   0  0  0  0  0  0
  -32.3120  -20.1551  -25.3940 H   0  0  0  0  0  0
  -32.0558  -18.3198  -27.0590 H   0  0  0  0  0  0
  -29.8569  -17.1595  -27.2786 H   0  0  0  0  0  0
  -27.9690  -17.8300  -25.8487 H   0  0  0  0  0  0
  -25.2350  -19.4530  -23.8531 H   0  0  0  0  0  0
  -24.3618  -20.9348  -26.1968 H   0  0  0  0  0  0
  -22.2375  -20.6356  -25.1385 H   0  0  0  0  0  0
  -23.2141  -23.2932  -22.2407 H   0  0  0  0  0  0
  -23.0473  -22.2449  -19.9991 H   0  0  0  0  0  0
  -24.2878  -21.4798  -20.9906 H   0  0  0  0  0  0
  -23.1821  -20.4898  -20.0495 H   0  0  0  0  0  0
  -20.5186  -22.0595  -20.7433 H   0  0  0  0  0  0
  -20.1283  -21.0087  -22.1074 H   0  0  0  0  0  0
  -20.7787  -20.3221  -20.6382 H   0  0  0  0  0  0
  1  2  1  0  0  0
  1 37  1  0  0  0
  1 38  1  0  0  0
  1 39  1  0  0  0
  2  3  1  0  0  0
  2 40  1  0  0  0
  2 41  1  0  0  0
  3  8  1  0  0  0
  3  4  1  0  0  0
  4  5  1  0  0  0
  4 42  1  0  0  0
  4 43  1  0  0  0
  5  6  1  0  0  0
  5 44  1  0  0  0
  5 45  1  0  0  0
  6  7  1  0  0  0
  6 11  1  0  0  0
  7  8  1  0  0  0
  7 10  2  0  0  0
  8  9  2  0  0  0
 11 12  1  0  0  0
 11 36  2  0  0  0
 12 13  1  0  0  0
 12 46  1  0  0  0
 13 14  1  0  0  0
 13 20  1  0  0  0
 13 47  1  0  0  0
 14 19  1  0  0  0
 14 15  2  0  0  0
 15 16  1  0  0  0
 15 48  1  0  0  0
 16 17  2  0  0  0
 16 49  1  0  0  0
 17 18  1  0  0  0
 17 50  1  0  0  0
 18 19  2  0  0  0
 18 51  1  0  0  0
 19 52  1  0  0  0
 20 21  1  0  0  0
 20 35  2  0  0  0
 21 22  1  0  0  0
 21 53  1  0  0  0
 22 25  1  0  0  0
 22 23  1  0  0  0
 22 54  1  0  0  0
 23 30  1  0  0  0
 23 24  1  0  0  0
 23 55  1  0  0  0
 24 25  1  0  0  0
 24 27  1  0  0  0
 25 26  2  0  0  0
 27 28  1  0  0  0
 27 32  1  0  0  0
 27 56  1  0  0  0
 28 29  1  0  0  0
 28 30  1  0  0  0
 28 31  1  0  0  0
 29 57  1  0  0  0
 29 58  1  0  0  0
 29 59  1  0  0  0
 31 60  1  0  0  0
 31 61  1  0  0  0
 31 62  1  0  0  0
 32 33  1  0  0  0
 32 34  2  0  0  0
M  CHG  1  33  -1
M  END
> <s_m_entry_id>
27666

> <s_m_entry_name>
data_maestro.11

> <s_m_Source_Path>
C:\Users\olshana1\Git\GramNeg-Accumulation\Gram Negative Permeation - OmpF

> <s_m_Source_File>
data_maestro.csv

> <i_m_Source_File_Index>
11

> <s_m_job_name>
glide-dock_Nicaido_neutral

> <s_i_glide_gridfile>
3POX-grid

> <i_i_glide_lignum>
15

> <i_i_glide_rotatable_bonds>
9

> <r_i_docking_score>
-4.23731092958344

> <r_i_glide_ligand_efficiency>
-0.117703081377318

> <r_i_glide_ligand_efficiency_sa>
-0.388647011214386

> <r_i_glide_ligand_efficiency_ln>
-0.924466765923457

> <r_i_glide_gscore>
-4.23731092958344

> <r_i_glide_lipo>
0

> <r_i_glide_hbond>
-0.508278064436803

> <r_i_glide_metal>
0

> <r_i_glide_rewards>
0.00482356605457437

> <r_i_glide_evdw>
-31.1065826416016

> <r_i_glide_ecoul>
-12.0353364944458

> <r_i_glide_erotb>
0.461572583116075

> <r_i_glide_esite>
-0.834799408070335

> <r_i_glide_emodel>
-60.0327510973681

> <r_i_glide_energy>
-43.1419191360474

> <r_i_glide_einternal>
12.8716955184937

> <i_i_glide_confnum>
61

> <i_i_glide_posenum>
287

> <r_i_glide_eff_state_penalty>
0

> <r_glide_res:A132_vdw>
-2.31686508438975

> <r_glide_res:A132_coul>
-25.259853461391

> <r_glide_res:A132_hbond>
0

> <r_glide_res:A132_dist>
2.31458028891587

> <r_glide_res:A132_Eint>
-27.5767185457807

> <r_glide_res:A117_vdw>
-4.82724140203833

> <r_glide_res:A117_coul>
11.6040772937819

> <r_glide_res:A117_hbond>
0

> <r_glide_res:A117_dist>
2.19581411949445

> <r_glide_res:A117_Eint>
6.77683589174354

> <r_glide_res:A113_vdw>
-2.7109700939281

> <r_glide_res:A113_coul>
6.36646870314098

> <r_glide_res:A113_hbond>
0

> <r_glide_res:A113_dist>
2.30859981403689

> <r_glide_res:A113_Eint>
3.65549860921288

> <r_glide_res:A82_vdw>
-2.43743287398945

> <r_glide_res:A82_coul>
-38.201528008756

> <r_glide_res:A82_hbond>
-0.16

> <r_glide_res:A82_dist>
2.07723143249196

> <r_glide_res:A82_Eint>
-40.7989608827454

> <r_glide_res:A42_vdw>
-0.521970111866308

> <r_glide_res:A42_coul>
-37.8238427890527

> <r_glide_res:A42_hbond>
-0.148278064436803

> <r_glide_res:A42_dist>
1.94000669835841

> <r_glide_res:A42_Eint>
-38.4940909653558

> <r_glide_res:A16_vdw>
-1.14380571365293

> <r_glide_res:A16_coul>
-22.2391206485814

> <r_glide_res:A16_hbond>
0

> <r_glide_res:A16_dist>
3.18211001683066

> <r_glide_res:A16_Eint>
-23.3829263622343

> <s_m_source_file>
ligprep_Nicaido_neutral.maegz

> <i_m_source_file_index>
11

> <i_lp_mmshare_version>
58128

> <i_f3d_flags>
0

> <s_lp_Force_Field>
S-OPLS

> <r_lp_Energy>
67.572455

> <b_lp_Chiralities_Consistent>
1

> <s_lp_Variant>
Piperacillin-1

> <s_epik_input>
W0NIM11bQ0gyXU4xW0NIMl1bQ0gyXU4oQyg9TylDMT1PKUMoPU8pW05IXVtDQEhdKGMyW2NIXVtjSF1bY0hdW2NIXVtjSF0yKUMoPU8pW05IXVtDQEBIXTNDKD1PKU4oW0NAQEhdMzQpW0NASF0oQyhTNCkoW0NIM10pW0NIM10pQyg9TylbT0hd

> <s_epik_cmdline>
J2VwaWtfcHl0aG9uJywgJy1waHQnLCAnMC4wJywgJy1waCcsICc3LjQnLCAnLW50JywgJy1tYScsICc1MDAnLCAnLWltYWUnLCAnPGluZmlsZS5tYWU+JywgJy1vbWFlJywgJzxvdXRmaWxlLm1hZT4n

> <r_lp_tautomer_probability>
1

> <r_epik_Ionization_Penalty>
  0.0049

> <r_epik_Ionization_Penalty_Charging>
  0.0000

> <r_epik_Ionization_Penalty_Neutral>
  0.0049

> <r_epik_State_Penalty>
  0.0000

> <r_epik_Charging_Adjusted_Penalty>
1.13204004886318e-05

> <i_epik_Tot_Q>
-1

> <i_epik_Tot_abs_Q>
1

> <s_epik_Chemistry_Notes>
This compound contains an acetal/aminal-like group ( X-CH(R)-Y where X, Y are N, S, or O) that may be acid/base labile, releasing an aldehyde.

> <s_m_subgroup_title>
glide-dock_Nicaido_neutral_pv1

> <s_m_subgroupid>
glide-dock_Nicaido_neutral_pv1

> <b_m_subgroup_collapsed>
0

$$$$
Cephaloglycin
                    3D
 Schrodinger Suite 2022-2.
 46 48  0  0  1  0            999 V2000
  -32.8424  -21.6656  -22.8264 C   0  0  0  0  0  0
  -31.5832  -21.2504  -22.0801 C   0  0  0  0  0  0
  -30.8996  -22.3123  -21.6114 O   0  0  0  0  0  0
  -29.7265  -22.1543  -20.8134 C   0  0  0  0  0  0
  -28.5571  -21.4959  -21.5278 C   0  0  0  0  0  0
  -28.0956  -21.8945  -22.7323 C   0  0  0  0  0  0
  -27.1956  -21.0566  -23.3815 N   0  0  0  0  0  0
  -25.9706  -20.5564  -22.7777 C   0  0  1  0  0  0
  -25.9198  -19.5633  -23.9559 C   0  0  2  0  0  0
  -27.0526  -20.4042  -24.5761 C   0  0  0  0  0  0
  -27.6634  -20.4794  -25.6149 O   0  0  0  0  0  0
  -24.6663  -19.5496  -24.7130 N   0  0  0  0  0  0
  -24.0154  -20.5436  -25.3469 C   0  0  0  0  0  0
  -22.7757  -20.1556  -26.1779 C   0  0  2  0  0  0
  -21.6053  -20.5295  -25.3301 C   0  0  0  0  0  0
  -21.1711  -19.7205  -24.2507 C   0  0  0  0  0  0
  -20.0560  -20.0752  -23.4680 C   0  0  0  0  0  0
  -19.3421  -21.2519  -23.7548 C   0  0  0  0  0  0
  -19.7516  -22.0700  -24.8224 C   0  0  0  0  0  0
  -20.8722  -21.7101  -25.5955 C   0  0  0  0  0  0
  -22.7370  -18.7496  -26.5869 N   0  0  0  0  0  0
  -24.3694  -21.7241  -25.3027 O   0  0  0  0  0  0
  -26.2542  -20.0017  -21.0489 S   0  0  0  0  0  0
  -28.0536  -20.2103  -20.8764 C   0  0  0  0  0  0
  -28.6301  -23.1496  -23.5057 C   0  0  0  0  0  0
  -28.7690  -23.0782  -24.7504 O   0  5  0  0  0  0
  -28.7680  -24.1854  -22.8132 O   0  0  0  0  0  0
  -31.2675  -20.0667  -21.9740 O   0  0  0  0  0  0
  -33.3600  -20.7887  -23.2156 H   0  0  0  0  0  0
  -32.5883  -22.3201  -23.6597 H   0  0  0  0  0  0
  -33.5173  -22.1972  -22.1556 H   0  0  0  0  0  0
  -29.4153  -23.1284  -20.4374 H   0  0  0  0  0  0
  -29.9689  -21.5504  -19.9471 H   0  0  0  0  0  0
  -25.1956  -21.3242  -22.8050 H   0  0  0  0  0  0
  -26.2320  -18.5635  -23.6576 H   0  0  0  0  0  0
  -24.3233  -18.6027  -24.8556 H   0  0  0  0  0  0
  -22.7917  -20.7590  -27.0872 H   0  0  0  0  0  0
  -21.6997  -18.8052  -24.0228 H   0  0  0  0  0  0
  -19.7457  -19.4366  -22.6537 H   0  0  0  0  0  0
  -18.4809  -21.5210  -23.1612 H   0  0  0  0  0  0
  -19.2029  -22.9704  -25.0542 H   0  0  0  0  0  0
  -21.1686  -22.3494  -26.4136 H   0  0  0  0  0  0
  -22.7328  -18.6557  -27.5919 H   0  0  0  0  0  0
  -23.5387  -18.2109  -26.2657 H   0  0  0  0  0  0
  -28.5662  -19.3598  -21.3278 H   0  0  0  0  0  0
  -28.2886  -20.1922  -19.8113 H   0  0  0  0  0  0
  1  2  1  0  0  0
  1 29  1  0  0  0
  1 30  1  0  0  0
  1 31  1  0  0  0
  2  3  1  0  0  0
  2 28  2  0  0  0
  3  4  1  0  0  0
  4  5  1  0  0  0
  4 32  1  0  0  0
  4 33  1  0  0  0
  5 24  1  0  0  0
  5  6  2  0  0  0
  6  7  1  0  0  0
  6 25  1  0  0  0
  7 10  1  0  0  0
  7  8  1  0  0  0
  8  9  1  0  0  0
  8 23  1  0  0  0
  8 34  1  0  0  0
  9 10  1  0  0  0
  9 12  1  0  0  0
  9 35  1  0  0  0
 10 11  2  0  0  0
 12 13  1  0  0  0
 12 36  1  0  0  0
 13 14  1  0  0  0
 13 22  2  0  0  0
 14 15  1  0  0  0
 14 21  1  0  0  0
 14 37  1  0  0  0
 15 20  1  0  0  0
 15 16  2  0  0  0
 16 17  1  0  0  0
 16 38  1  0  0  0
 17 18  2  0  0  0
 17 39  1  0  0  0
 18 19  1  0  0  0
 18 40  1  0  0  0
 19 20  2  0  0  0
 19 41  1  0  0  0
 20 42  1  0  0  0
 21 43  1  0  0  0
 21 44  1  0  0  0
 23 24  1  0  0  0
 24 45  1  0  0  0
 24 46  1  0  0  0
 25 26  1  0  0  0
 25 27  2  0  0  0
M  CHG  1  26  -1
M  END
> <s_m_entry_id>
27667

> <s_m_entry_name>
data_maestro.16

> <s_m_Source_Path>
C:\Users\olshana1\Git\GramNeg-Accumulation\Gram Negative Permeation - OmpF

> <s_m_Source_File>
data_maestro.csv

> <i_m_Source_File_Index>
16

> <s_m_job_name>
glide-dock_Nicaido_neutral

> <s_i_glide_gridfile>
3POX-grid

> <i_i_glide_lignum>
21

> <i_i_glide_rotatable_bonds>
8

> <r_i_docking_score>
-4.22584542616535

> <r_i_glide_ligand_efficiency>
-0.150923050934477

> <r_i_glide_ligand_efficiency_sa>
-0.458291271560421

> <r_i_glide_ligand_efficiency_ln>
-0.975449200572123

> <r_i_glide_gscore>
-4.33724542616535

> <r_i_glide_lipo>
-0.000204208207299084

> <r_i_glide_hbond>
-0.854133981872

> <r_i_glide_metal>
0

> <r_i_glide_rewards>
-0.651075119689628

> <r_i_glide_evdw>
-27.047779083252

> <r_i_glide_ecoul>
-10.7028284072876

> <r_i_glide_erotb>
0.600502745111863

> <r_i_glide_esite>
-0.474521646252548

> <r_i_glide_emodel>
-56.955595385632

> <r_i_glide_energy>
-37.7506074905396

> <r_i_glide_einternal>
8.94596004486084

> <i_i_glide_confnum>
97

> <i_i_glide_posenum>
265

> <r_i_glide_eff_state_penalty>
0.1114

> <r_glide_res:A132_vdw>
-1.1984883015395

> <r_glide_res:A132_coul>
-32.418857576587

> <r_glide_res:A132_hbond>
0

> <r_glide_res:A132_dist>
2.81722117830656

> <r_glide_res:A132_Eint>
-33.6173458781265

> <r_glide_res:A117_vdw>
-3.45169343779881

> <r_glide_res:A117_coul>
8.3689837301388

> <r_glide_res:A117_hbond>
-0.30333391350794

> <r_glide_res:A117_dist>
1.88075947134223

> <r_glide_res:A117_Eint>
4.61395637883205

> <r_glide_res:A113_vdw>
-2.82774377892816

> <r_glide_res:A113_coul>
21.988229271748

> <r_glide_res:A113_hbond>
0

> <r_glide_res:A113_dist>
2.25287650045967

> <r_glide_res:A113_Eint>
19.1604854928199

> <r_glide_res:A82_vdw>
1.44106126140901

> <r_glide_res:A82_coul>
-50.6956620109373

> <r_glide_res:A82_hbond>
-0.3272757191754

> <r_glide_res:A82_dist>
1.80148335742992

> <r_glide_res:A82_Eint>
-49.5818764687037

> <r_glide_res:A42_vdw>
-1.49158261110436

> <r_glide_res:A42_coul>
-50.5502664646987

> <r_glide_res:A42_hbond>
-0.22352434918866

> <r_glide_res:A42_dist>
1.92900930625484

> <r_glide_res:A42_Eint>
-52.2653734249917

> <r_glide_res:A16_vdw>
-0.475630921554756

> <r_glide_res:A16_coul>
-30.953496140394

> <r_glide_res:A16_hbond>
0

> <r_glide_res:A16_dist>
3.69468346329595

> <r_glide_res:A16_Eint>
-31.4291270619488

> <s_m_source_file>
ligprep_Nicaido_neutral.maegz

> <i_m_source_file_index>
16

> <i_lp_mmshare_version>
58128

> <i_f3d_flags>
0

> <s_lp_Force_Field>
S-OPLS

> <r_lp_Energy>
48.658328

> <b_lp_Chiralities_Consistent>
1

> <s_lp_Variant>
Cephaloglycin-1

> <s_epik_input>
W0NIM11DKD1PKU9bQ0gyXUMoPUMxQyg9TylbT0hdKVtDSDJdU1tDQEBIXShOMTIpW0NASF0oQzI9TylbTkhdQyg9TylbQ0BASF0oW05IMl0pYzNbY0hdW2NIXVtjSF1bY0hdW2NIXTM=

> <s_epik_cmdline>
J2VwaWtfcHl0aG9uJywgJy1waHQnLCAnMC4wJywgJy1waCcsICc3LjQnLCAnLW50JywgJy1tYScsICc1MDAnLCAnLWltYWUnLCAnPGluZmlsZS5tYWU+JywgJy1vbWFlJywgJzxvdXRmaWxlLm1hZT4n

> <r_epik_Ionization_Penalty>
  0.1114

> <r_epik_Ionization_Penalty_Charging>
  0.0000

> <r_epik_Ionization_Penalty_Neutral>
  0.1114

> <r_epik_State_Penalty>
  0.1114

> <r_epik_Charging_Adjusted_Penalty>
0.111378695294398

> <i_epik_Tot_Q>
-1

> <i_epik_Tot_abs_Q>
1

> <s_epik_Chemistry_Notes>
This compound has an ester and may undergo hydrolysis at high or low pH. This compound contains an acetal/aminal-like group ( X-CH(R)-Y where X, Y are N, S, or O) that may be acid/base labile, releasing an aldehyde.

> <s_m_subgroup_title>
glide-dock_Nicaido_neutral_pv1

> <s_m_subgroupid>
glide-dock_Nicaido_neutral_pv1

> <b_m_subgroup_collapsed>
0

$$$$
Cephalexin
                    3D
 Schrodinger Suite 2022-2.
 40 42  0  0  1  0            999 V2000
  -21.5291  -23.1024  -25.5173 C   0  0  0  0  0  0
  -22.7125  -22.4755  -24.7948 C   0  0  0  0  0  0
  -23.6656  -23.1936  -24.1431 C   0  0  0  0  0  0
  -24.7585  -22.5852  -23.5018 N   0  0  0  0  0  0
  -25.1774  -21.2236  -23.7928 C   0  0  1  0  0  0
  -26.2004  -21.3874  -22.6515 C   0  0  2  0  0  0
  -25.8754  -22.9000  -22.7452 C   0  0  0  0  0  0
  -26.3686  -23.9496  -22.3873 O   0  0  0  0  0  0
  -27.5686  -20.9961  -23.0184 N   0  0  0  0  0  0
  -28.3390  -21.4730  -24.0135 C   0  0  0  0  0  0
  -29.7479  -20.8730  -24.1370 C   0  0  2  0  0  0
  -30.6171  -21.9163  -23.5079 C   0  0  0  0  0  0
  -30.8714  -21.8805  -22.1147 C   0  0  0  0  0  0
  -31.6520  -22.8652  -21.4794 C   0  0  0  0  0  0
  -32.2065  -23.9154  -22.2315 C   0  0  0  0  0  0
  -31.9823  -23.9681  -23.6191 C   0  0  0  0  0  0
  -31.1970  -22.9796  -24.2451 C   0  0  0  0  0  0
  -30.0547  -20.5723  -25.5392 N   0  0  0  0  0  0
  -27.9690  -22.3397  -24.8137 O   0  0  0  0  0  0
  -23.7363  -20.1379  -23.6257 S   0  0  0  0  0  0
  -22.6965  -20.9490  -24.8658 C   0  0  0  0  0  0
  -23.6035  -24.7496  -24.0407 C   0  0  0  0  0  0
  -24.3688  -25.4014  -24.7899 O   0  5  0  0  0  0
  -22.7687  -25.2144  -23.2328 O   0  0  0  0  0  0
  -21.2981  -22.5296  -26.4138 H   0  0  0  0  0  0
  -20.6471  -23.0844  -24.8762 H   0  0  0  0  0  0
  -21.7115  -24.1283  -25.8339 H   0  0  0  0  0  0
  -25.6063  -21.1492  -24.7943 H   0  0  0  0  0  0
  -25.8599  -20.9167  -21.7279 H   0  0  0  0  0  0
  -27.9743  -20.2721  -22.4407 H   0  0  0  0  0  0
  -29.7946  -19.9397  -23.5720 H   0  0  0  0  0  0
  -30.4558  -21.0859  -21.5089 H   0  0  0  0  0  0
  -31.8235  -22.8077  -20.4129 H   0  0  0  0  0  0
  -32.8075  -24.6696  -21.7439 H   0  0  0  0  0  0
  -32.4160  -24.7653  -24.2046 H   0  0  0  0  0  0
  -31.0364  -23.0409  -25.3102 H   0  0  0  0  0  0
  -30.3872  -19.6197  -25.6132 H   0  0  0  0  0  0
  -29.1911  -20.5856  -26.0635 H   0  0  0  0  0  0
  -21.6778  -20.5836  -24.7340 H   0  0  0  0  0  0
  -23.0226  -20.6407  -25.8596 H   0  0  0  0  0  0
  1  2  1  0  0  0
  1 25  1  0  0  0
  1 26  1  0  0  0
  1 27  1  0  0  0
  2 21  1  0  0  0
  2  3  2  0  0  0
  3  4  1  0  0  0
  3 22  1  0  0  0
  4  7  1  0  0  0
  4  5  1  0  0  0
  5  6  1  0  0  0
  5 20  1  0  0  0
  5 28  1  0  0  0
  6  7  1  0  0  0
  6  9  1  0  0  0
  6 29  1  0  0  0
  7  8  2  0  0  0
  9 10  1  0  0  0
  9 30  1  0  0  0
 10 11  1  0  0  0
 10 19  2  0  0  0
 11 12  1  0  0  0
 11 18  1  0  0  0
 11 31  1  0  0  0
 12 17  1  0  0  0
 12 13  2  0  0  0
 13 14  1  0  0  0
 13 32  1  0  0  0
 14 15  2  0  0  0
 14 33  1  0  0  0
 15 16  1  0  0  0
 15 34  1  0  0  0
 16 17  2  0  0  0
 16 35  1  0  0  0
 17 36  1  0  0  0
 18 37  1  0  0  0
 18 38  1  0  0  0
 20 21  1  0  0  0
 21 39  1  0  0  0
 21 40  1  0  0  0
 22 23  1  0  0  0
 22 24  2  0  0  0
M  CHG  1  23  -1
M  END
> <s_m_entry_id>
27668

> <s_m_entry_name>
data_maestro.14

> <s_m_Source_Path>
C:\Users\olshana1\Git\GramNeg-Accumulation\Gram Negative Permeation - OmpF

> <s_m_Source_File>
data_maestro.csv

> <i_m_Source_File_Index>
14

> <s_m_job_name>
glide-dock_Nicaido_neutral

> <s_i_glide_gridfile>
3POX-grid

> <i_i_glide_lignum>
19

> <i_i_glide_rotatable_bonds>
5

> <r_i_docking_score>
-4.21802934707355

> <r_i_glide_ligand_efficiency>
-0.175751222794731

> <r_i_glide_ligand_efficiency_sa>
-0.506954250576363

> <r_i_glide_ligand_efficiency_ln>
-1.00956797550937

> <r_i_glide_gscore>
-4.33322934707355

> <r_i_glide_lipo>
0

> <r_i_glide_hbond>
-0.719549085130797

> <r_i_glide_metal>
0

> <r_i_glide_rewards>
-1.04739440062279

> <r_i_glide_evdw>
-20.5554141998291

> <r_i_glide_ecoul>
-11.1549348831177

> <r_i_glide_erotb>
0.475363118437828

> <r_i_glide_esite>
-0.340638037298691

> <r_i_glide_emodel>
-48.7967257148606

> <r_i_glide_energy>
-31.7103490829468

> <r_i_glide_einternal>
5.54362201690674

> <i_i_glide_confnum>
4

> <i_i_glide_posenum>
339

> <r_i_glide_eff_state_penalty>
0.1152

> <r_glide_res:A132_vdw>
-1.65170753592566

> <r_glide_res:A132_coul>
-37.0460833840676

> <r_glide_res:A132_hbond>
-0.0340089187811581

> <r_glide_res:A132_dist>
2.34511261372649

> <r_glide_res:A132_Eint>
-38.7317998387744

> <r_glide_res:A117_vdw>
-2.04854439516611

> <r_glide_res:A117_coul>
15.1855095127319

> <r_glide_res:A117_hbond>
0

> <r_glide_res:A117_dist>
3.59490397459544

> <r_glide_res:A117_Eint>
13.1369651175658

> <r_glide_res:A113_vdw>
-1.64850166681971

> <r_glide_res:A113_coul>
12.6750249351133

> <r_glide_res:A113_hbond>
0

> <r_glide_res:A113_dist>
2.47405688186169

> <r_glide_res:A113_Eint>
11.0265232682936

> <r_glide_res:A82_vdw>
-1.83257066728452

> <r_glide_res:A82_coul>
-49.849998886785

> <r_glide_res:A82_hbond>
-0.314353871055009

> <r_glide_res:A82_dist>
1.99451857884771

> <r_glide_res:A82_Eint>
-51.9969234251246

> <r_glide_res:A42_vdw>
-2.33105695375409

> <r_glide_res:A42_coul>
-40.5395209953709

> <r_glide_res:A42_hbond>
-0.17118629529463

> <r_glide_res:A42_dist>
1.87026813886764

> <r_glide_res:A42_Eint>
-43.0417642444196

> <r_glide_res:A16_vdw>
-0.754333793712311

> <r_glide_res:A16_coul>
-20.4887488420744

> <r_glide_res:A16_hbond>
0

> <r_glide_res:A16_dist>
2.40246119369049

> <r_glide_res:A16_Eint>
-21.2430826357867

> <s_m_source_file>
ligprep_Nicaido_neutral.maegz

> <i_m_source_file_index>
14

> <i_lp_mmshare_version>
58128

> <i_f3d_flags>
0

> <s_lp_Force_Field>
S-OPLS

> <r_lp_Energy>
47.820483

> <b_lp_Chiralities_Consistent>
1

> <s_lp_Variant>
Cephalexin-1

> <s_epik_input>
W09IXUMoPU8pQzE9QyhbQ0gzXSlbQ0gyXVNbQ0BASF0oTjEyKVtDQEhdKEMyPU8pW05IXUMoPU8pW0NAQEhdKFtOSDJdKWMzW2NIXVtjSF1bY0hdW2NIXVtjSF0z

> <s_epik_cmdline>
J2VwaWtfcHl0aG9uJywgJy1waHQnLCAnMC4wJywgJy1waCcsICc3LjQnLCAnLW50JywgJy1tYScsICc1MDAnLCAnLWltYWUnLCAnPGluZmlsZS5tYWU+JywgJy1vbWFlJywgJzxvdXRmaWxlLm1hZT4n

> <r_epik_Ionization_Penalty>
  0.1152

> <r_epik_Ionization_Penalty_Charging>
  0.0000

> <r_epik_Ionization_Penalty_Neutral>
  0.1152

> <r_epik_State_Penalty>
  0.1152

> <r_epik_Charging_Adjusted_Penalty>
0.115182589938214

> <i_epik_Tot_Q>
-1

> <i_epik_Tot_abs_Q>
1

> <s_epik_Chemistry_Notes>
This compound contains an acetal/aminal-like group ( X-CH(R)-Y where X, Y are N, S, or O) that may be acid/base labile, releasing an aldehyde.

> <s_m_subgroup_title>
glide-dock_Nicaido_neutral_pv1

> <s_m_subgroupid>
glide-dock_Nicaido_neutral_pv1

> <b_m_subgroup_collapsed>
0

$$$$
Cephaloridine
                    3D
 Schrodinger Suite 2022-2.
 45 48  0  0  1  0            999 V2000
  -29.9524  -24.3496  -21.3693 O   0  0  0  0  0  0
  -30.2642  -23.1895  -21.5264 C   0  0  0  0  0  0
  -31.5079  -22.2849  -21.3548 C   0  0  2  0  0  0
  -32.8060  -22.8674  -21.7253 N   0  0  0  0  0  0
  -33.1241  -23.6382  -22.7816 C   0  0  0  0  0  0
  -34.5973  -24.0208  -22.9190 C   0  0  0  0  0  0
  -34.9267  -25.2419  -22.1214 C   0  0  0  0  0  0
  -35.4795  -25.3010  -20.8659 C   0  0  0  0  0  0
  -35.7055  -26.6348  -20.4167 C   0  0  0  0  0  0
  -35.3061  -27.5762  -21.3276 C   0  0  0  0  0  0
  -34.6503  -26.8424  -22.7646 S   0  0  0  0  0  0
  -32.3135  -24.0200  -23.6280 O   0  0  0  0  0  0
  -30.8438  -21.4516  -22.4693 C   0  0  2  0  0  0
  -29.6022  -22.0814  -22.0289 N   0  0  0  0  0  0
  -28.3922  -21.7044  -22.6281 C   0  0  0  0  0  0
  -27.4862  -22.8543  -23.2055 C   0  0  0  0  0  0
  -27.2225  -23.8341  -22.4657 O   0  5  0  0  0  0
  -27.1753  -22.7454  -24.4133 O   0  0  0  0  0  0
  -28.0633  -20.3861  -22.6240 C   0  0  0  0  0  0
  -26.7336  -19.8159  -23.1442 C   0  0  0  0  0  0
  -25.8180  -19.2708  -22.0992 N   0  3  0  0  0  0
  -24.7689  -18.5166  -22.5271 C   0  0  0  0  0  0
  -23.8585  -17.9497  -21.6125 C   0  0  0  0  0  0
  -24.0403  -18.1748  -20.2340 C   0  0  0  0  0  0
  -25.1186  -18.9748  -19.8091 C   0  0  0  0  0  0
  -25.9885  -19.5287  -20.7709 C   0  0  0  0  0  0
  -29.0066  -19.3618  -21.9845 C   0  0  0  0  0  0
  -30.7483  -19.6244  -22.4115 S   0  0  0  0  0  0
  -31.5441  -21.7370  -20.4136 H   0  0  0  0  0  0
  -33.5596  -22.6455  -21.0901 H   0  0  0  0  0  0
  -34.8237  -24.1914  -23.9720 H   0  0  0  0  0  0
  -35.2237  -23.1850  -22.6035 H   0  0  0  0  0  0
  -35.7371  -24.4414  -20.2639 H   0  0  0  0  0  0
  -36.1477  -26.8532  -19.4558 H   0  0  0  0  0  0
  -35.3582  -28.6517  -21.2423 H   0  0  0  0  0  0
  -31.0915  -21.7667  -23.4862 H   0  0  0  0  0  0
  -26.1494  -20.5443  -23.7023 H   0  0  0  0  0  0
  -26.9552  -18.9984  -23.8324 H   0  0  0  0  0  0
  -24.6969  -18.3557  -23.5947 H   0  0  0  0  0  0
  -23.0438  -17.3334  -21.9693 H   0  0  0  0  0  0
  -23.3643  -17.7376  -19.5126 H   0  0  0  0  0  0
  -25.2862  -19.1584  -18.7562 H   0  0  0  0  0  0
  -26.8104  -20.1625  -20.4782 H   0  0  0  0  0  0
  -28.9104  -19.3947  -20.8984 H   0  0  0  0  0  0
  -28.7690  -18.3493  -22.2970 H   0  0  0  0  0  0
  1  2  2  0  0  0
  2 14  1  0  0  0
  2  3  1  0  0  0
  3  4  1  0  0  0
  3 13  1  0  0  0
  3 29  1  0  0  0
  4  5  1  0  0  0
  4 30  1  0  0  0
  5  6  1  0  0  0
  5 12  2  0  0  0
  6  7  1  0  0  0
  6 31  1  0  0  0
  6 32  1  0  0  0
  7 11  1  0  0  0
  7  8  2  0  0  0
  8  9  1  0  0  0
  8 33  1  0  0  0
  9 10  2  0  0  0
  9 34  1  0  0  0
 10 11  1  0  0  0
 10 35  1  0  0  0
 13 28  1  0  0  0
 13 14  1  0  0  0
 13 36  1  0  0  0
 14 15  1  0  0  0
 15 16  1  0  0  0
 15 19  2  0  0  0
 16 17  1  0  0  0
 16 18  2  0  0  0
 19 20  1  0  0  0
 19 27  1  0  0  0
 20 21  1  0  0  0
 20 37  1  0  0  0
 20 38  1  0  0  0
 21 26  1  0  0  0
 21 22  2  0  0  0
 22 23  1  0  0  0
 22 39  1  0  0  0
 23 24  2  0  0  0
 23 40  1  0  0  0
 24 25  1  0  0  0
 24 41  1  0  0  0
 25 26  2  0  0  0
 25 42  1  0  0  0
 26 43  1  0  0  0
 27 28  1  0  0  0
 27 44  1  0  0  0
 27 45  1  0  0  0
M  CHG  2  17  -1  21   1
M  END
> <s_m_entry_id>
27669

> <s_m_entry_name>
data_maestro.13

> <s_m_Source_Path>
C:\Users\olshana1\Git\GramNeg-Accumulation\Gram Negative Permeation - OmpF

> <s_m_Source_File>
data_maestro.csv

> <i_m_Source_File_Index>
13

> <s_m_job_name>
glide-dock_Nicaido_neutral

> <s_i_glide_gridfile>
3POX-grid

> <i_i_glide_lignum>
18

> <i_i_glide_rotatable_bonds>
7

> <r_i_docking_score>
-4.21437123440239

> <r_i_glide_ligand_efficiency>
-0.150513258371514

> <r_i_glide_ligand_efficiency_sa>
-0.457046899984353

> <r_i_glide_ligand_efficiency_ln>
-0.972800620216322

> <r_i_glide_gscore>
-4.21437123440239

> <r_i_glide_lipo>
-0.151197834224926

> <r_i_glide_hbond>
-0.402375580871141

> <r_i_glide_metal>
0

> <r_i_glide_rewards>
-0.576210527997766

> <r_i_glide_evdw>
-25.0731468200684

> <r_i_glide_ecoul>
-13.3585443496704

> <r_i_glide_erotb>
0.571951339556603

> <r_i_glide_esite>
-0.399099637411179

> <r_i_glide_emodel>
-56.2779764541846

> <r_i_glide_energy>
-38.4316911697388

> <r_i_glide_einternal>
8.48616218566895

> <i_i_glide_confnum>
75

> <i_i_glide_posenum>
154

> <r_i_glide_eff_state_penalty>
0

> <r_glide_res:A132_vdw>
-1.3901718602939

> <r_glide_res:A132_coul>
-21.9013069802806

> <r_glide_res:A132_hbond>
-0.0193875992843734

> <r_glide_res:A132_dist>
2.35394003620282

> <r_glide_res:A132_Eint>
-23.3108664398589

> <r_glide_res:A117_vdw>
-3.0553688847251

> <r_glide_res:A117_coul>
-18.8498047439849

> <r_glide_res:A117_hbond>
0

> <r_glide_res:A117_dist>
2.21146119082727

> <r_glide_res:A117_Eint>
-21.90517362871

> <r_glide_res:A113_vdw>
-3.59750064068587

> <r_glide_res:A113_coul>
-6.50648724972623

> <r_glide_res:A113_hbond>
0

> <r_glide_res:A113_dist>
2.30125289195159

> <r_glide_res:A113_Eint>
-10.1039878904121

> <r_glide_res:A82_vdw>
-1.42125743026496

> <r_glide_res:A82_coul>
-32.1637167956878

> <r_glide_res:A82_hbond>
-0.2

> <r_glide_res:A82_dist>
1.85224394740968

> <r_glide_res:A82_Eint>
-33.7849742259528

> <r_glide_res:A42_vdw>
1.12747208691864

> <r_glide_res:A42_coul>
-23.6820470809136

> <r_glide_res:A42_hbond>
-0.182987981586767

> <r_glide_res:A42_dist>
1.78881618590312

> <r_glide_res:A42_Eint>
-22.7375629755817

> <r_glide_res:A16_vdw>
-0.276073064336491

> <r_glide_res:A16_coul>
-6.46847575203526

> <r_glide_res:A16_hbond>
0

> <r_glide_res:A16_dist>
4.74054109335561

> <r_glide_res:A16_Eint>
-6.74454881637175

> <s_m_source_file>
ligprep_Nicaido_neutral.maegz

> <i_m_source_file_index>
13

> <i_lp_mmshare_version>
58128

> <i_f3d_flags>
0

> <s_lp_Force_Field>
S-OPLS

> <r_lp_Energy>
50.740529

> <b_lp_Chiralities_Consistent>
1

> <s_lp_Variant>
Cephaloridine-1

> <s_epik_input>
czFbY0hdW2NIXVtjSF1jMVtDSDJdQyg9TylbTkhdW0NASF0yQyg9TylOKFtDQEBIXTIzKUMoQyg9TylbT0hdKT1DKFtDSDJdUzMpW0NIMl1bbitdNFtjSF1bY0hdW2NIXVtjSF1bY0hdNA==

> <s_epik_cmdline>
J2VwaWtfcHl0aG9uJywgJy1waHQnLCAnMC4wJywgJy1waCcsICc3LjQnLCAnLW50JywgJy1tYScsICc1MDAnLCAnLWltYWUnLCAnPGluZmlsZS5tYWU+JywgJy1vbWFlJywgJzxvdXRmaWxlLm1hZT4n

> <r_lp_tautomer_probability>
1

> <r_epik_Ionization_Penalty>
  0.0000

> <r_epik_Ionization_Penalty_Charging>
  0.0000

> <r_epik_Ionization_Penalty_Neutral>
  0.0000

> <r_epik_State_Penalty>
  0.0000

> <r_epik_Charging_Adjusted_Penalty>
1.62498989321064e-05

> <i_epik_Tot_Q>
0

> <i_epik_Tot_abs_Q>
2

> <s_epik_Chemistry_Notes>
This compound contains an acetal/aminal-like group ( X-CH(R)-Y where X, Y are N, S, or O) that may be acid/base labile, releasing an aldehyde.

> <s_m_subgroup_title>
glide-dock_Nicaido_neutral_pv1

> <s_m_subgroupid>
glide-dock_Nicaido_neutral_pv1

> <b_m_subgroup_collapsed>
0

$$$$
Ampicillin
                    3D
 Schrodinger Suite 2022-2.
 42 44  0  0  1  0            999 V2000
  -28.3663  -19.6715  -24.4104 C   0  0  0  0  0  0
  -29.3759  -20.1656  -23.3507 C   0  0  0  0  0  0
  -29.4953  -21.7311  -23.2268 C   0  0  2  0  0  0
  -28.6653  -22.0671  -22.0807 N   0  0  0  0  0  0
  -28.3777  -21.1726  -20.9756 C   0  0  2  0  0  0
  -28.7470  -19.5653  -21.7327 S   0  0  0  0  0  0
  -26.9843  -21.8213  -20.9183 C   0  0  2  0  0  0
  -27.6235  -22.9139  -21.7944 C   0  0  0  0  0  0
  -27.3254  -24.0183  -22.2037 O   0  0  0  0  0  0
  -26.5789  -22.2220  -19.5713 N   0  0  0  0  0  0
  -25.6210  -23.1252  -19.2829 C   0  0  0  0  0  0
  -25.0537  -23.1068  -17.8487 C   0  0  2  0  0  0
  -24.3310  -21.7936  -17.7328 C   0  0  0  0  0  0
  -22.9473  -21.6504  -18.0145 C   0  0  0  0  0  0
  -22.2873  -20.4126  -17.8780 C   0  0  0  0  0  0
  -23.0018  -19.2726  -17.4761 C   0  0  0  0  0  0
  -24.3757  -19.3798  -17.2157 C   0  0  0  0  0  0
  -25.0235  -20.6242  -17.3395 C   0  0  0  0  0  0
  -24.1793  -24.2603  -17.6133 N   0  0  0  0  0  0
  -25.1894  -23.9462  -20.1036 O   0  0  0  0  0  0
  -29.1661  -22.5341  -24.5090 C   0  0  0  0  0  0
  -30.1075  -22.9632  -25.2127 O   0  5  0  0  0  0
  -27.9684  -22.7279  -24.8127 O   0  0  0  0  0  0
  -30.7484  -19.5333  -23.6300 C   0  0  0  0  0  0
  -28.6778  -19.9187  -25.4247 H   0  0  0  0  0  0
  -28.2538  -18.5854  -24.3705 H   0  0  0  0  0  0
  -27.3767  -20.1007  -24.2454 H   0  0  0  0  0  0
  -30.5113  -21.9960  -22.9320 H   0  0  0  0  0  0
  -29.0071  -21.3554  -20.1021 H   0  0  0  0  0  0
  -26.2324  -21.2204  -21.4329 H   0  0  0  0  0  0
  -26.9005  -21.6259  -18.8183 H   0  0  0  0  0  0
  -25.8812  -23.1500  -17.1378 H   0  0  0  0  0  0
  -22.3682  -22.4973  -18.3428 H   0  0  0  0  0  0
  -21.2326  -20.3354  -18.0860 H   0  0  0  0  0  0
  -22.5060  -18.3182  -17.3773 H   0  0  0  0  0  0
  -24.9429  -18.5049  -16.9201 H   0  0  0  0  0  0
  -26.0862  -20.6680  -17.1520 H   0  0  0  0  0  0
  -24.1224  -24.7910  -18.4727 H   0  0  0  0  0  0
  -23.2438  -23.9426  -17.4111 H   0  0  0  0  0  0
  -31.1531  -19.8671  -24.5853 H   0  0  0  0  0  0
  -31.4652  -19.7896  -22.8505 H   0  0  0  0  0  0
  -30.6780  -18.4457  -23.6625 H   0  0  0  0  0  0
  1  2  1  0  0  0
  1 25  1  0  0  0
  1 26  1  0  0  0
  1 27  1  0  0  0
  2  6  1  0  0  0
  2  3  1  0  0  0
  2 24  1  0  0  0
  3  4  1  0  0  0
  3 21  1  0  0  0
  3 28  1  0  0  0
  4  8  1  0  0  0
  4  5  1  0  0  0
  5  6  1  0  0  0
  5  7  1  0  0  0
  5 29  1  0  0  0
  7  8  1  0  0  0
  7 10  1  0  0  0
  7 30  1  0  0  0
  8  9  2  0  0  0
 10 11  1  0  0  0
 10 31  1  0  0  0
 11 12  1  0  0  0
 11 20  2  0  0  0
 12 13  1  0  0  0
 12 19  1  0  0  0
 12 32  1  0  0  0
 13 18  1  0  0  0
 13 14  2  0  0  0
 14 15  1  0  0  0
 14 33  1  0  0  0
 15 16  2  0  0  0
 15 34  1  0  0  0
 16 17  1  0  0  0
 16 35  1  0  0  0
 17 18  2  0  0  0
 17 36  1  0  0  0
 18 37  1  0  0  0
 19 38  1  0  0  0
 19 39  1  0  0  0
 21 22  1  0  0  0
 21 23  2  0  0  0
 24 40  1  0  0  0
 24 41  1  0  0  0
 24 42  1  0  0  0
M  CHG  1  22  -1
M  END
> <s_m_entry_id>
27670

> <s_m_entry_name>
data_maestro.18

> <s_m_Source_Path>
C:\Users\olshana1\Git\GramNeg-Accumulation\Gram Negative Permeation - OmpF

> <s_m_Source_File>
data_maestro.csv

> <i_m_Source_File_Index>
18

> <s_m_job_name>
glide-dock_Nicaido_neutral

> <s_i_glide_gridfile>
3POX-grid

> <i_i_glide_lignum>
23

> <i_i_glide_rotatable_bonds>
5

> <r_i_docking_score>
-4.21192817946303

> <r_i_glide_ligand_efficiency>
-0.175497007477626

> <r_i_glide_ligand_efficiency_sa>
-0.50622096671342

> <r_i_glide_ligand_efficiency_ln>
-1.00810768613584

> <r_i_glide_gscore>
-4.31782817946303

> <r_i_glide_lipo>
0

> <r_i_glide_hbond>
-0.782505050642296

> <r_i_glide_metal>
0

> <r_i_glide_rewards>
-0.992611115520636

> <r_i_glide_evdw>
-23.0457019805908

> <r_i_glide_ecoul>
-9.77890968322754

> <r_i_glide_erotb>
0.470487855572594

> <r_i_glide_esite>
-0.394078317359024

> <r_i_glide_emodel>
-49.8676905233628

> <r_i_glide_energy>
-32.8246116638184

> <r_i_glide_einternal>
5.88022232055664

> <i_i_glide_confnum>
5

> <i_i_glide_posenum>
341

> <r_i_glide_eff_state_penalty>
0.1059

> <r_glide_res:A132_vdw>
-2.01969035234234

> <r_glide_res:A132_coul>
-34.1104320281874

> <r_glide_res:A132_hbond>
-0.16

> <r_glide_res:A132_dist>
2.09536478471669

> <r_glide_res:A132_Eint>
-36.2901223805297

> <r_glide_res:A117_vdw>
-2.3925568496989

> <r_glide_res:A117_coul>
23.6674428441096

> <r_glide_res:A117_hbond>
0

> <r_glide_res:A117_dist>
2.73025319236634

> <r_glide_res:A117_Eint>
21.2748859944107

> <r_glide_res:A113_vdw>
-2.37625144793849

> <r_glide_res:A113_coul>
17.6186770499862

> <r_glide_res:A113_hbond>
0

> <r_glide_res:A113_dist>
2.79349348644426

> <r_glide_res:A113_Eint>
15.2424256020477

> <r_glide_res:A82_vdw>
-1.80886219668811

> <r_glide_res:A82_coul>
-45.4147076571713

> <r_glide_res:A82_hbond>
-0.16

> <r_glide_res:A82_dist>
1.90861243918229

> <r_glide_res:A82_Eint>
-47.3835698538594

> <r_glide_res:A42_vdw>
2.33450813699185

> <r_glide_res:A42_coul>
-57.9121618705397

> <r_glide_res:A42_hbond>
-0.462505050642296

> <r_glide_res:A42_dist>
1.76944147591535

> <r_glide_res:A42_Eint>
-56.0401587841902

> <r_glide_res:A16_vdw>
-0.577335751134422

> <r_glide_res:A16_coul>
-33.3835627021718

> <r_glide_res:A16_hbond>
0

> <r_glide_res:A16_dist>
3.37832448552803

> <r_glide_res:A16_Eint>
-33.9608984533062

> <s_m_source_file>
ligprep_Nicaido_neutral.maegz

> <i_m_source_file_index>
18

> <i_lp_mmshare_version>
58128

> <i_f3d_flags>
0

> <s_lp_Force_Field>
S-OPLS

> <r_lp_Energy>
33.736216

> <b_lp_Chiralities_Consistent>
1

> <s_lp_Variant>
Ampicillin-1

> <s_epik_input>
W09IXUMoPU8pW0NAQEhdMUMoW0NIM10pKFtDSDNdKVNbQ0BASF0oTjEyKVtDQEhdKEMyPU8pW05IXUMoPU8pW0NAQEhdKFtOSDJdKWMzW2NIXVtjSF1bY0hdW2NIXVtjSF0z

> <s_epik_cmdline>
J2VwaWtfcHl0aG9uJywgJy1waHQnLCAnMC4wJywgJy1waCcsICc3LjQnLCAnLW50JywgJy1tYScsICc1MDAnLCAnLWltYWUnLCAnPGluZmlsZS5tYWU+JywgJy1vbWFlJywgJzxvdXRmaWxlLm1hZT4n

> <r_epik_Ionization_Penalty>
  0.1060

> <r_epik_Ionization_Penalty_Charging>
  0.0000

> <r_epik_Ionization_Penalty_Neutral>
  0.1059

> <r_epik_State_Penalty>
  0.1059

> <r_epik_Charging_Adjusted_Penalty>
0.105949346496876

> <i_epik_Tot_Q>
-1

> <i_epik_Tot_abs_Q>
1

> <s_epik_Chemistry_Notes>
This compound contains an acetal/aminal-like group ( X-CH(R)-Y where X, Y are N, S, or O) that may be acid/base labile, releasing an aldehyde.

> <s_m_subgroup_title>
glide-dock_Nicaido_neutral_pv1

> <s_m_subgroupid>
glide-dock_Nicaido_neutral_pv1

> <b_m_subgroup_collapsed>
0

$$$$
Cefotaxime
                    3D
 Schrodinger Suite 2022-2.
 46 48  0  0  1  0            999 V2000
  -31.6507  -16.7284  -27.8219 C   0  0  0  0  0  0
  -30.4639  -17.6282  -27.5111 C   0  0  0  0  0  0
  -30.0947  -17.5499  -26.2238 O   0  0  0  0  0  0
  -29.0663  -18.3765  -25.6910 C   0  0  0  0  0  0
  -29.5749  -19.1912  -24.5014 C   0  0  0  0  0  0
  -29.4401  -20.5407  -24.4028 C   0  0  0  0  0  0
  -29.9006  -21.2610  -23.2913 N   0  0  0  0  0  0
  -31.1008  -20.8255  -22.6047 C   0  0  1  0  0  0
  -31.0249  -22.1360  -21.7866 C   0  0  2  0  0  0
  -29.8678  -22.5347  -22.7378 C   0  0  0  0  0  0
  -29.2498  -23.5483  -23.0015 O   0  0  0  0  0  0
  -32.2017  -23.0214  -21.8998 N   0  0  0  0  0  0
  -32.7826  -23.4837  -23.0304 C   0  0  0  0  0  0
  -33.7919  -24.5889  -22.8004 C   0  0  0  0  0  0
  -34.4156  -25.0770  -24.0569 C   0  0  0  0  0  0
  -35.6453  -24.6127  -24.4626 C   0  0  0  0  0  0
  -36.1516  -25.3376  -25.9634 S   0  0  0  0  0  0
  -34.6560  -26.2591  -25.9757 C   0  0  0  0  0  0
  -34.3688  -27.1495  -26.9922 N   0  0  0  0  0  0
  -33.8612  -26.0213  -24.9324 N   0  0  0  0  0  0
  -34.0629  -25.0608  -21.6486 N   0  0  0  0  0  0
  -35.0000  -26.1034  -21.7169 O   0  0  0  0  0  0
  -35.1773  -26.6151  -20.4133 C   0  0  0  0  0  0
  -32.5025  -23.0927  -24.1654 O   0  0  0  0  0  0
  -30.7227  -19.1922  -21.9050 S   0  0  0  0  0  0
  -30.2502  -18.3275  -23.4317 C   0  0  0  0  0  0
  -28.7688  -21.3970  -25.5070 C   0  0  0  0  0  0
  -27.6840  -21.9495  -25.2134 O   0  5  0  0  0  0
  -29.4406  -21.5495  -26.5539 O   0  0  0  0  0  0
  -29.9686  -18.3495  -28.3783 O   0  0  0  0  0  0
  -31.4005  -15.6882  -27.6134 H   0  0  0  0  0  0
  -31.9355  -16.8139  -28.8702 H   0  0  0  0  0  0
  -32.5052  -17.0060  -27.2046 H   0  0  0  0  0  0
  -28.2602  -17.7339  -25.3395 H   0  0  0  0  0  0
  -28.6227  -19.0115  -26.4553 H   0  0  0  0  0  0
  -31.9509  -20.7615  -23.2854 H   0  0  0  0  0  0
  -30.7190  -21.9556  -20.7551 H   0  0  0  0  0  0
  -32.5482  -23.4005  -21.0284 H   0  0  0  0  0  0
  -36.2803  -23.8928  -23.9673 H   0  0  0  0  0  0
  -33.6094  -27.8229  -26.8849 H   0  0  0  0  0  0
  -35.0670  -27.3902  -27.6785 H   0  0  0  0  0  0
  -35.8922  -27.4375  -20.4361 H   0  0  0  0  0  0
  -34.2373  -26.9985  -20.0133 H   0  0  0  0  0  0
  -35.5689  -25.8486  -19.7418 H   0  0  0  0  0  0
  -29.5856  -17.5068  -23.1610 H   0  0  0  0  0  0
  -31.1509  -17.8822  -23.8543 H   0  0  0  0  0  0
  1  2  1  0  0  0
  1 31  1  0  0  0
  1 32  1  0  0  0
  1 33  1  0  0  0
  2  3  1  0  0  0
  2 30  2  0  0  0
  3  4  1  0  0  0
  4  5  1  0  0  0
  4 34  1  0  0  0
  4 35  1  0  0  0
  5 26  1  0  0  0
  5  6  2  0  0  0
  6  7  1  0  0  0
  6 27  1  0  0  0
  7 10  1  0  0  0
  7  8  1  0  0  0
  8  9  1  0  0  0
  8 25  1  0  0  0
  8 36  1  0  0  0
  9 10  1  0  0  0
  9 12  1  0  0  0
  9 37  1  0  0  0
 10 11  2  0  0  0
 12 13  1  0  0  0
 12 38  1  0  0  0
 13 14  1  0  0  0
 13 24  2  0  0  0
 14 15  1  0  0  0
 14 21  2  3  0  0
 15 20  1  0  0  0
 15 16  2  0  0  0
 16 17  1  0  0  0
 16 39  1  0  0  0
 17 18  1  0  0  0
 18 19  1  0  0  0
 18 20  2  0  0  0
 19 40  1  0  0  0
 19 41  1  0  0  0
 21 22  1  0  0  0
 22 23  1  0  0  0
 23 42  1  0  0  0
 23 43  1  0  0  0
 23 44  1  0  0  0
 25 26  1  0  0  0
 26 45  1  0  0  0
 26 46  1  0  0  0
 27 28  1  0  0  0
 27 29  2  0  0  0
M  CHG  1  28  -1
M  END
> <s_m_entry_id>
27671

> <s_m_entry_name>
data_maestro.6

> <s_m_Source_Path>
C:\Users\olshana1\Git\GramNeg-Accumulation\Gram Negative Permeation - OmpF

> <s_m_Source_File>
data_maestro.csv

> <i_m_Source_File_Index>
6

> <s_m_job_name>
glide-dock_Nicaido_neutral

> <s_i_glide_gridfile>
3POX-grid

> <i_i_glide_lignum>
7

> <i_i_glide_rotatable_bonds>
9

> <r_i_docking_score>
-4.19983032777573

> <r_i_glide_ligand_efficiency>
-0.139994344259191

> <r_i_glide_ligand_efficiency_sa>
-0.434994976638686

> <r_i_glide_ligand_efficiency_ln>
-0.954247211287222

> <r_i_glide_gscore>
-4.19983032777573

> <r_i_glide_lipo>
-0.0715642931036021

> <r_i_glide_hbond>
-0.855223982103401

> <r_i_glide_metal>
0

> <r_i_glide_rewards>
-0.306982453362236

> <r_i_glide_evdw>
-27.8970890045166

> <r_i_glide_ecoul>
-11.7156343460083

> <r_i_glide_erotb>
0.680611118548691

> <r_i_glide_esite>
-0.494471115628111

> <r_i_glide_emodel>
-59.0479010067345

> <r_i_glide_energy>
-39.6127233505249

> <r_i_glide_einternal>
6.454017162323

> <i_i_glide_confnum>
21

> <i_i_glide_posenum>
86

> <r_i_glide_eff_state_penalty>
0

> <r_glide_res:A132_vdw>
-0.825142212855681

> <r_glide_res:A132_coul>
-23.6722128761656

> <r_glide_res:A132_hbond>
0

> <r_glide_res:A132_dist>
3.45357496790029

> <r_glide_res:A132_Eint>
-24.4973550890213

> <r_glide_res:A117_vdw>
-4.43966444822089

> <r_glide_res:A117_coul>
26.086962291519

> <r_glide_res:A117_hbond>
0

> <r_glide_res:A117_dist>
2.02757610343484

> <r_glide_res:A117_Eint>
21.6472978432981

> <r_glide_res:A113_vdw>
-3.04349015218915

> <r_glide_res:A113_coul>
16.67877795163

> <r_glide_res:A113_hbond>
0

> <r_glide_res:A113_dist>
2.66147617962448

> <r_glide_res:A113_Eint>
13.6352877994408

> <r_glide_res:A82_vdw>
-1.99239461727879

> <r_glide_res:A82_coul>
-38.5185355412192

> <r_glide_res:A82_hbond>
-0.115831229613902

> <r_glide_res:A82_dist>
2.20229024547407

> <r_glide_res:A82_Eint>
-40.6267613881119

> <r_glide_res:A42_vdw>
1.6275866823937

> <r_glide_res:A42_coul>
-57.045310134885

> <r_glide_res:A42_hbond>
-0.282971031496989

> <r_glide_res:A42_dist>
1.64408702852866

> <r_glide_res:A42_Eint>
-55.7006944839883

> <r_glide_res:A16_vdw>
-0.26917471206212

> <r_glide_res:A16_coul>
-55.3679338373123

> <r_glide_res:A16_hbond>
-0.29642172099251

> <r_glide_res:A16_dist>
1.82434253040364

> <r_glide_res:A16_Eint>
-55.9335302703669

> <s_m_source_file>
ligprep_Nicaido_neutral.maegz

> <i_m_source_file_index>
6

> <i_lp_mmshare_version>
58128

> <i_f3d_flags>
0

> <s_lp_Force_Field>
S-OPLS

> <r_lp_Energy>
53.728996

> <b_lp_Chiralities_Consistent>
1

> <s_lp_Variant>
Cefotaxime-1

> <s_epik_input>
W0NIM11DKD1PKU9bQ0gyXUMoPUMxQyg9TylbT0hdKVtDSDJdU1tDQEBIXShOMTIpW0NASF0oQzI9TylbTkhdQyg9TykvQyg9Ti9PW0NIM10pYzNbY0hdc2MobjMpW05IMl0=

> <s_epik_cmdline>
J2VwaWtfcHl0aG9uJywgJy1waHQnLCAnMC4wJywgJy1waCcsICc3LjQnLCAnLW50JywgJy1tYScsICc1MDAnLCAnLWltYWUnLCAnPGluZmlsZS5tYWU+JywgJy1vbWFlJywgJzxvdXRmaWxlLm1hZT4n

> <r_lp_tautomer_probability>
1

> <r_epik_Ionization_Penalty>
  0.0004

> <r_epik_Ionization_Penalty_Charging>
  0.0000

> <r_epik_Ionization_Penalty_Neutral>
  0.0004

> <r_epik_State_Penalty>
  0.0000

> <r_epik_Charging_Adjusted_Penalty>
5.45682606121274e-06

> <i_epik_Tot_Q>
-1

> <i_epik_Tot_abs_Q>
1

> <s_epik_Chemistry_Notes>
This compound has an ester and may undergo hydrolysis at high or low pH. This compound has an imine and may undergo hydrolysis. This compound contains an acetal/aminal-like group ( X-CH(R)-Y where X, Y are N, S, or O) that may be acid/base labile, releasing an aldehyde.

> <s_m_subgroup_title>
glide-dock_Nicaido_neutral_pv1

> <s_m_subgroupid>
glide-dock_Nicaido_neutral_pv1

> <b_m_subgroup_collapsed>
0

$$$$
Cefoxitin
                    3D
 Schrodinger Suite 2022-2.
 44 46  0  0  1  0            999 V2000
  -25.8334  -19.3710  -25.0587 C   0  0  0  0  0  0
  -26.6918  -20.4923  -24.9371 O   0  0  0  0  0  0
  -27.9827  -20.2174  -24.3897 C   0  0  2  0  0  0
  -28.1240  -20.2663  -22.8546 C   0  0  1  0  0  0
  -28.7318  -21.5743  -23.0138 N   0  0  0  0  0  0
  -28.7866  -21.5465  -24.3921 C   0  0  0  0  0  0
  -29.1791  -22.3496  -25.2143 O   0  0  0  0  0  0
  -29.0659  -22.4135  -21.9404 C   0  0  0  0  0  0
  -30.0069  -23.6097  -22.3030 C   0  0  0  0  0  0
  -29.5690  -24.7491  -22.0282 O   0  5  0  0  0  0
  -31.0426  -23.3443  -22.9467 O   0  0  0  0  0  0
  -28.6198  -22.1870  -20.6776 C   0  0  0  0  0  0
  -27.7008  -21.0208  -20.3119 C   0  0  0  0  0  0
  -26.7263  -20.4150  -21.7122 S   0  0  0  0  0  0
  -29.0315  -23.0463  -19.4899 C   0  0  0  0  0  0
  -28.1069  -24.1186  -19.2945 O   0  0  0  0  0  0
  -27.0555  -24.1076  -18.4370 C   0  0  0  0  0  0
  -27.0420  -23.0027  -17.6133 N   0  0  0  0  0  0
  -26.2260  -25.0154  -18.4138 O   0  0  0  0  0  0
  -28.6598  -19.0296  -24.9225 N   0  0  0  0  0  0
  -29.3391  -18.9194  -26.0703 C   0  0  0  0  0  0
  -29.8500  -17.5321  -26.4397 C   0  0  0  0  0  0
  -31.3106  -17.5496  -26.7618 C   0  0  0  0  0  0
  -32.3627  -17.5380  -25.8812 C   0  0  0  0  0  0
  -33.6333  -17.5351  -26.5274 C   0  0  0  0  0  0
  -33.5339  -17.5428  -27.8936 C   0  0  0  0  0  0
  -31.8722  -17.5495  -28.4134 S   0  0  0  0  0  0
  -29.5689  -19.8707  -26.8134 O   0  0  0  0  0  0
  -24.8172  -19.7044  -25.2664 H   0  0  0  0  0  0
  -26.1489  -18.7494  -25.8950 H   0  0  0  0  0  0
  -25.8136  -18.7678  -24.1500 H   0  0  0  0  0  0
  -28.8595  -19.5593  -22.4629 H   0  0  0  0  0  0
  -28.3055  -20.2093  -19.9037 H   0  0  0  0  0  0
  -26.9914  -21.3089  -19.5413 H   0  0  0  0  0  0
  -29.1682  -22.4223  -18.6082 H   0  0  0  0  0  0
  -30.0076  -23.4942  -19.6743 H   0  0  0  0  0  0
  -27.7945  -22.3326  -17.6726 H   0  0  0  0  0  0
  -26.3648  -22.9871  -16.8641 H   0  0  0  0  0  0
  -28.5307  -18.1843  -24.3825 H   0  0  0  0  0  0
  -29.2740  -17.1525  -27.2847 H   0  0  0  0  0  0
  -29.6674  -16.8507  -25.6137 H   0  0  0  0  0  0
  -32.2644  -17.5229  -24.8046 H   0  0  0  0  0  0
  -34.5596  -17.5244  -25.9723 H   0  0  0  0  0  0
  -34.3305  -17.5373  -28.6221 H   0  0  0  0  0  0
  1  2  1  0  0  0
  1 29  1  0  0  0
  1 30  1  0  0  0
  1 31  1  0  0  0
  2  3  1  0  0  0
  3  6  1  0  0  0
  3  4  1  0  0  0
  3 20  1  0  0  0
  4 14  1  0  0  0
  4  5  1  0  0  0
  4 32  1  0  0  0
  5  6  1  0  0  0
  5  8  1  0  0  0
  6  7  2  0  0  0
  8  9  1  0  0  0
  8 12  2  0  0  0
  9 10  1  0  0  0
  9 11  2  0  0  0
 12 13  1  0  0  0
 12 15  1  0  0  0
 13 14  1  0  0  0
 13 33  1  0  0  0
 13 34  1  0  0  0
 15 16  1  0  0  0
 15 35  1  0  0  0
 15 36  1  0  0  0
 16 17  1  0  0  0
 17 18  1  0  0  0
 17 19  2  0  0  0
 18 37  1  0  0  0
 18 38  1  0  0  0
 20 21  1  0  0  0
 20 39  1  0  0  0
 21 22  1  0  0  0
 21 28  2  0  0  0
 22 23  1  0  0  0
 22 40  1  0  0  0
 22 41  1  0  0  0
 23 27  1  0  0  0
 23 24  2  0  0  0
 24 25  1  0  0  0
 24 42  1  0  0  0
 25 26  2  0  0  0
 25 43  1  0  0  0
 26 27  1  0  0  0
 26 44  1  0  0  0
M  CHG  1  10  -1
M  END
> <s_m_entry_id>
27672

> <s_m_entry_name>
data_maestro.4

> <s_m_Source_Path>
C:\Users\olshana1\Git\GramNeg-Accumulation\Gram Negative Permeation - OmpF

> <s_m_Source_File>
data_maestro.csv

> <i_m_Source_File_Index>
4

> <s_m_job_name>
glide-dock_Nicaido_neutral

> <s_i_glide_gridfile>
3POX-grid

> <i_i_glide_lignum>
4

> <i_i_glide_rotatable_bonds>
9

> <r_i_docking_score>
-4.19560331201764

> <r_i_glide_ligand_efficiency>
-0.149842975429201

> <r_i_glide_ligand_efficiency_sa>
-0.455011526195952

> <r_i_glide_ligand_efficiency_ln>
-0.968468432679776

> <r_i_glide_gscore>
-4.19560331201764

> <r_i_glide_lipo>
0

> <r_i_glide_hbond>
-0.650950815944713

> <r_i_glide_metal>
0

> <r_i_glide_rewards>
0.236150651645275

> <r_i_glide_evdw>
-27.3970851898193

> <r_i_glide_ecoul>
-15.5058040618896

> <r_i_glide_erotb>
0.545654768997296

> <r_i_glide_esite>
-0.630733047941083

> <r_i_glide_emodel>
-59.0353772807795

> <r_i_glide_energy>
-42.902889251709

> <r_i_glide_einternal>
8.75937080383301

> <i_i_glide_confnum>
56

> <i_i_glide_posenum>
360

> <r_i_glide_eff_state_penalty>
0

> <r_glide_res:A132_vdw>
0.479237250265897

> <r_glide_res:A132_coul>
-44.4545045049014

> <r_glide_res:A132_hbond>
-0.169644000874017

> <r_glide_res:A132_dist>
1.98971059381419

> <r_glide_res:A132_Eint>
-44.1449112555096

> <r_glide_res:A117_vdw>
-5.56259975140711

> <r_glide_res:A117_coul>
9.85917869734625

> <r_glide_res:A117_hbond>
0

> <r_glide_res:A117_dist>
1.94563349368083

> <r_glide_res:A117_Eint>
4.29657894593914

> <r_glide_res:A113_vdw>
-1.10647290870917

> <r_glide_res:A113_coul>
17.358546195672

> <r_glide_res:A113_hbond>
0

> <r_glide_res:A113_dist>
2.17070270697227

> <r_glide_res:A113_Eint>
16.2520732869628

> <r_glide_res:A82_vdw>
-0.365146343494821

> <r_glide_res:A82_coul>
-50.7598512640424

> <r_glide_res:A82_hbond>
-0.2

> <r_glide_res:A82_dist>
1.77081383944863

> <r_glide_res:A82_Eint>
-51.3249976075372

> <r_glide_res:A42_vdw>
-1.49895295825021

> <r_glide_res:A42_coul>
-41.0834293088938

> <r_glide_res:A42_hbond>
-0.16

> <r_glide_res:A42_dist>
1.93294378105785

> <r_glide_res:A42_Eint>
-42.742382267144

> <r_glide_res:A16_vdw>
-0.265007458948083

> <r_glide_res:A16_coul>
-38.8641810144234

> <r_glide_res:A16_hbond>
-0.101504232273934

> <r_glide_res:A16_dist>
1.97337708100883

> <r_glide_res:A16_Eint>
-39.2306927056454

> <s_m_source_file>
ligprep_Nicaido_neutral.maegz

> <i_m_source_file_index>
4

> <i_lp_mmshare_version>
58128

> <i_f3d_flags>
0

> <s_lp_Force_Field>
S-OPLS

> <r_lp_Energy>
27.517474

> <b_lp_Chiralities_Consistent>
1

> <s_lp_Variant>
Cefoxitin-1

> <s_epik_input>
czFbY0hdW2NIXVtjSF1jMVtDSDJdQyg9TylbTkhdW0NAXTIoT1tDSDNdKUMoPU8pTihbQ0BIXTIzKUMoQyg9TylbT0hdKT1DKFtDSDJdUzMpW0NIMl1PQyg9TylbTkgyXQ==

> <s_epik_cmdline>
J2VwaWtfcHl0aG9uJywgJy1waHQnLCAnMC4wJywgJy1waCcsICc3LjQnLCAnLW50JywgJy1tYScsICc1MDAnLCAnLWltYWUnLCAnPGluZmlsZS5tYWU+JywgJy1vbWFlJywgJzxvdXRmaWxlLm1hZT4n

> <r_lp_tautomer_probability>
1

> <r_epik_Ionization_Penalty>
  0.0000

> <r_epik_Ionization_Penalty_Charging>
  0.0000

> <r_epik_Ionization_Penalty_Neutral>
  0.0000

> <r_epik_State_Penalty>
  0.0000

> <r_epik_Charging_Adjusted_Penalty>
8.89144247208744e-06

> <i_epik_Tot_Q>
-1

> <i_epik_Tot_abs_Q>
1

> <s_epik_Chemistry_Notes>
This compound has an ester and may undergo hydrolysis at high or low pH. This compound contains an acetal/aminal-like group ( X-CH(R)-Y where X, Y are N, S, or O) that may be acid/base labile, releasing an aldehyde.

> <s_m_subgroup_title>
glide-dock_Nicaido_neutral_pv1

> <s_m_subgroupid>
glide-dock_Nicaido_neutral_pv1

> <b_m_subgroup_collapsed>
0

$$$$
Cefotaxime
                    3D
 Schrodinger Suite 2022-2.
 46 48  0  0  1  0            999 V2000
  -29.7908  -18.1606  -27.4491 C   0  0  0  0  0  0
  -29.6275  -18.3434  -25.9467 C   0  0  0  0  0  0
  -28.7076  -19.2762  -25.6305 O   0  0  0  0  0  0
  -28.2827  -19.4700  -24.2823 C   0  0  0  0  0  0
  -29.2622  -20.2829  -23.4381 C   0  0  0  0  0  0
  -29.2312  -21.6322  -23.2943 C   0  0  0  0  0  0
  -30.1420  -22.2000  -22.3936 N   0  0  0  0  0  0
  -31.5665  -21.9127  -22.5541 C   0  0  1  0  0  0
  -31.7487  -22.7501  -21.2773 C   0  0  2  0  0  0
  -30.3651  -23.3334  -21.6340 C   0  0  0  0  0  0
  -29.7336  -24.3482  -21.4362 O   0  0  0  0  0  0
  -32.8682  -23.6977  -21.2977 N   0  0  0  0  0  0
  -33.1772  -24.6556  -22.1940 C   0  0  0  0  0  0
  -34.4499  -25.4593  -21.8505 C   0  0  0  0  0  0
  -35.3852  -24.8340  -20.8527 C   0  0  0  0  0  0
  -36.1693  -25.6100  -20.0243 C   0  0  0  0  0  0
  -37.1235  -24.6576  -18.9136 S   0  0  0  0  0  0
  -36.4543  -23.2132  -19.6482 C   0  0  0  0  0  0
  -36.7780  -21.9435  -19.2121 N   0  0  0  0  0  0
  -35.6175  -23.4627  -20.6523 N   0  0  0  0  0  0
  -34.7583  -26.6081  -22.3301 N   0  0  0  0  0  0
  -33.8108  -27.1697  -23.2034 O   0  0  0  0  0  0
  -34.3666  -28.3489  -23.7543 C   0  0  0  0  0  0
  -32.4996  -24.8739  -23.2015 O   0  0  0  0  0  0
  -31.8865  -20.1032  -22.5812 S   0  0  0  0  0  0
  -30.1903  -19.4589  -22.5483 C   0  0  0  0  0  0
  -28.2037  -22.5847  -24.0048 C   0  0  0  0  0  0
  -27.9816  -22.3478  -25.2126 O   0  5  0  0  0  0
  -27.7351  -23.5467  -23.3490 O   0  0  0  0  0  0
  -30.2978  -17.6821  -25.1601 O   0  0  0  0  0  0
  -29.5687  -19.0832  -27.9813 H   0  0  0  0  0  0
  -30.8115  -17.8554  -27.6816 H   0  0  0  0  0  0
  -29.1172  -17.3777  -27.7991 H   0  0  0  0  0  0
  -28.0937  -18.5099  -23.8055 H   0  0  0  0  0  0
  -27.3205  -19.9806  -24.3069 H   0  0  0  0  0  0
  -31.9522  -22.3745  -23.4658 H   0  0  0  0  0  0
  -31.7669  -22.0956  -20.4120 H   0  0  0  0  0  0
  -33.5135  -23.5956  -20.5240 H   0  0  0  0  0  0
  -36.2205  -26.6880  -19.9804 H   0  0  0  0  0  0
  -36.1887  -21.1765  -19.5080 H   0  0  0  0  0  0
  -37.1687  -21.8215  -18.2871 H   0  0  0  0  0  0
  -33.6504  -28.8029  -24.4386 H   0  0  0  0  0  0
  -34.6028  -29.0805  -22.9798 H   0  0  0  0  0  0
  -35.2737  -28.1318  -24.3199 H   0  0  0  0  0  0
  -29.8172  -19.5067  -21.5238 H   0  0  0  0  0  0
  -30.1991  -18.4037  -22.8131 H   0  0  0  0  0  0
  1  2  1  0  0  0
  1 31  1  0  0  0
  1 32  1  0  0  0
  1 33  1  0  0  0
  2  3  1  0  0  0
  2 30  2  0  0  0
  3  4  1  0  0  0
  4  5  1  0  0  0
  4 34  1  0  0  0
  4 35  1  0  0  0
  5 26  1  0  0  0
  5  6  2  0  0  0
  6  7  1  0  0  0
  6 27  1  0  0  0
  7 10  1  0  0  0
  7  8  1  0  0  0
  8  9  1  0  0  0
  8 25  1  0  0  0
  8 36  1  0  0  0
  9 10  1  0  0  0
  9 12  1  0  0  0
  9 37  1  0  0  0
 10 11  2  0  0  0
 12 13  1  0  0  0
 12 38  1  0  0  0
 13 14  1  0  0  0
 13 24  2  0  0  0
 14 15  1  0  0  0
 14 21  2  3  0  0
 15 20  1  0  0  0
 15 16  2  0  0  0
 16 17  1  0  0  0
 16 39  1  0  0  0
 17 18  1  0  0  0
 18 19  1  0  0  0
 18 20  2  0  0  0
 19 40  1  0  0  0
 19 41  1  0  0  0
 21 22  1  0  0  0
 22 23  1  0  0  0
 23 42  1  0  0  0
 23 43  1  0  0  0
 23 44  1  0  0  0
 25 26  1  0  0  0
 26 45  1  0  0  0
 26 46  1  0  0  0
 27 28  1  0  0  0
 27 29  2  0  0  0
M  CHG  1  28  -1
M  END
> <s_m_entry_id>
27673

> <s_m_entry_name>
data_maestro.6

> <s_m_Source_Path>
C:\Users\olshana1\Git\GramNeg-Accumulation\Gram Negative Permeation - OmpF

> <s_m_Source_File>
data_maestro.csv

> <i_m_Source_File_Index>
6

> <s_m_job_name>
glide-dock_Nicaido_neutral

> <s_i_glide_gridfile>
3POX-grid

> <i_i_glide_lignum>
8

> <i_i_glide_rotatable_bonds>
9

> <r_i_docking_score>
-4.19379992816285

> <r_i_glide_ligand_efficiency>
-0.139793330938762

> <r_i_glide_ligand_efficiency_sa>
-0.434370381516025

> <r_i_glide_ligand_efficiency_ln>
-0.952877038788707

> <r_i_glide_gscore>
-4.19379992816285

> <r_i_glide_lipo>
-0.0266134366624802

> <r_i_glide_hbond>
-0.745685317809882

> <r_i_glide_metal>
0

> <r_i_glide_rewards>
-0.307840488008139

> <r_i_glide_evdw>
-29.9411201477051

> <r_i_glide_ecoul>
-11.9690475463867

> <r_i_glide_erotb>
0.680611118548691

> <r_i_glide_esite>
-0.501858664887773

> <r_i_glide_emodel>
-59.9844418711042

> <r_i_glide_energy>
-41.9101676940918

> <r_i_glide_einternal>
7.4836802482605

> <i_i_glide_confnum>
121

> <i_i_glide_posenum>
297

> <r_i_glide_eff_state_penalty>
0

> <r_glide_res:A132_vdw>
-0.602392456735698

> <r_glide_res:A132_coul>
-36.0701924731026

> <r_glide_res:A132_hbond>
-0.0394848236072033

> <r_glide_res:A132_dist>
2.22721372978579

> <r_glide_res:A132_Eint>
-36.7120697534455

> <r_glide_res:A117_vdw>
-4.03900518192121

> <r_glide_res:A117_coul>
22.5538884891997

> <r_glide_res:A117_hbond>
0

> <r_glide_res:A117_dist>
2.30913851761008

> <r_glide_res:A117_Eint>
18.5148833072785

> <r_glide_res:A113_vdw>
-4.49230920963771

> <r_glide_res:A113_coul>
17.5043716328419

> <r_glide_res:A113_hbond>
0

> <r_glide_res:A113_dist>
2.32610651984821

> <r_glide_res:A113_Eint>
13.0120624232042

> <r_glide_res:A82_vdw>
-0.697276663711222

> <r_glide_res:A82_coul>
-53.0200543940837

> <r_glide_res:A82_hbond>
-0.185849513695227

> <r_glide_res:A82_dist>
1.82348767397633

> <r_glide_res:A82_Eint>
-53.9031805714901

> <r_glide_res:A42_vdw>
3.88039439170165

> <r_glide_res:A42_coul>
-52.2887852461778

> <r_glide_res:A42_hbond>
-0.299014957796929

> <r_glide_res:A42_dist>
1.61460909801996

> <r_glide_res:A42_Eint>
-48.7074058122731

> <r_glide_res:A16_vdw>
-0.972235160659402

> <r_glide_res:A16_coul>
-29.3498202072681

> <r_glide_res:A16_hbond>
0

> <r_glide_res:A16_dist>
1.98745723496507

> <r_glide_res:A16_Eint>
-30.3220553679275

> <s_m_source_file>
ligprep_Nicaido_neutral.maegz

> <i_m_source_file_index>
6

> <i_lp_mmshare_version>
58128

> <i_f3d_flags>
0

> <s_lp_Force_Field>
S-OPLS

> <r_lp_Energy>
51.702138

> <b_lp_Chiralities_Consistent>
1

> <s_lp_Variant>
Cefotaxime-2

> <s_epik_input>
W0NIM11DKD1PKU9bQ0gyXUMoPUMxQyg9TylbT0hdKVtDSDJdU1tDQEBIXShOMTIpW0NASF0oQzI9TylbTkhdQyg9TykvQyg9Ti9PW0NIM10pYzNbY0hdc2MobjMpW05IMl0=

> <s_epik_cmdline>
J2VwaWtfcHl0aG9uJywgJy1waHQnLCAnMC4wJywgJy1waCcsICc3LjQnLCAnLW50JywgJy1tYScsICc1MDAnLCAnLWltYWUnLCAnPGluZmlsZS5tYWU+JywgJy1vbWFlJywgJzxvdXRmaWxlLm1hZT4n

> <r_lp_tautomer_probability>
1

> <r_epik_Ionization_Penalty>
  0.0004

> <r_epik_Ionization_Penalty_Charging>
  0.0000

> <r_epik_Ionization_Penalty_Neutral>
  0.0004

> <r_epik_State_Penalty>
  0.0000

> <r_epik_Charging_Adjusted_Penalty>
5.45682606121274e-06

> <i_epik_Tot_Q>
-1

> <i_epik_Tot_abs_Q>
1

> <s_epik_Chemistry_Notes>
This compound has an ester and may undergo hydrolysis at high or low pH. This compound has an imine and may undergo hydrolysis. This compound contains an acetal/aminal-like group ( X-CH(R)-Y where X, Y are N, S, or O) that may be acid/base labile, releasing an aldehyde.

> <s_m_subgroup_title>
glide-dock_Nicaido_neutral_pv1

> <s_m_subgroupid>
glide-dock_Nicaido_neutral_pv1

> <b_m_subgroup_collapsed>
0

$$$$
Cefotaxime
                    3D
 Schrodinger Suite 2022-2.
 46 48  0  0  1  0            999 V2000
  -20.2690  -22.0306  -26.0139 C   0  0  0  0  0  0
  -20.9718  -22.7788  -24.8932 C   0  0  0  0  0  0
  -21.0878  -22.0302  -23.7865 O   0  0  0  0  0  0
  -21.6962  -22.5577  -22.6199 C   0  0  0  0  0  0
  -23.1689  -22.1724  -22.5255 C   0  0  0  0  0  0
  -24.1857  -23.0716  -22.5829 C   0  0  0  0  0  0
  -25.5319  -22.6772  -22.4680 N   0  0  0  0  0  0
  -26.0063  -21.3265  -22.7125 C   0  0  1  0  0  0
  -27.4032  -21.7962  -22.2438 C   0  0  2  0  0  0
  -26.7731  -23.2115  -22.2070 C   0  0  0  0  0  0
  -27.1428  -24.3495  -22.0132 O   0  0  0  0  0  0
  -28.4336  -21.5727  -23.2702 N   0  0  0  0  0  0
  -29.4123  -22.4228  -23.6517 C   0  0  0  0  0  0
  -30.3197  -21.9093  -24.7457 C   0  0  0  0  0  0
  -30.3491  -20.4397  -24.9332 C   0  0  0  0  0  0
  -30.9793  -19.6173  -24.0294 C   0  0  0  0  0  0
  -30.9110  -17.9495  -24.5175 S   0  0  0  0  0  0
  -30.0077  -18.4462  -25.9393 C   0  0  0  0  0  0
  -29.5688  -17.5314  -26.8705 N   0  0  0  0  0  0
  -29.7759  -19.7562  -26.0107 N   0  0  0  0  0  0
  -30.9903  -22.7337  -25.4492 N   0  0  0  0  0  0
  -31.7904  -22.1072  -26.4136 O   0  0  0  0  0  0
  -32.7199  -23.0650  -26.8908 C   0  0  0  0  0  0
  -29.5682  -23.5600  -23.2059 O   0  0  0  0  0  0
  -25.0012  -20.1903  -21.7177 S   0  0  0  0  0  0
  -23.3751  -20.6659  -22.3635 C   0  0  0  0  0  0
  -23.9318  -24.6069  -22.8136 C   0  0  0  0  0  0
  -24.3687  -25.0963  -23.8805 O   0  5  0  0  0  0
  -23.3218  -25.2185  -21.9096 O   0  0  0  0  0  0
  -21.3459  -23.9467  -25.0294 O   0  0  0  0  0  0
  -19.8437  -21.0928  -25.6558 H   0  0  0  0  0  0
  -19.4615  -22.6401  -26.4179 H   0  0  0  0  0  0
  -20.9749  -21.8070  -26.8130 H   0  0  0  0  0  0
  -21.1842  -22.1353  -21.7551 H   0  0  0  0  0  0
  -21.5341  -23.6322  -22.5525 H   0  0  0  0  0  0
  -25.9490  -21.0793  -23.7750 H   0  0  0  0  0  0
  -27.6703  -21.3943  -21.2652 H   0  0  0  0  0  0
  -28.4188  -20.6567  -23.6987 H   0  0  0  0  0  0
  -31.4900  -19.8842  -23.1143 H   0  0  0  0  0  0
  -28.5914  -17.6019  -27.1163 H   0  0  0  0  0  0
  -29.7820  -16.5641  -26.6438 H   0  0  0  0  0  0
  -33.3674  -22.6088  -27.6393 H   0  0  0  0  0  0
  -32.2173  -23.9154  -27.3547 H   0  0  0  0  0  0
  -33.3562  -23.4337  -26.0840 H   0  0  0  0  0  0
  -22.6205  -20.2593  -21.6897 H   0  0  0  0  0  0
  -23.2263  -20.1892  -23.3329 H   0  0  0  0  0  0
  1  2  1  0  0  0
  1 31  1  0  0  0
  1 32  1  0  0  0
  1 33  1  0  0  0
  2  3  1  0  0  0
  2 30  2  0  0  0
  3  4  1  0  0  0
  4  5  1  0  0  0
  4 34  1  0  0  0
  4 35  1  0  0  0
  5 26  1  0  0  0
  5  6  2  0  0  0
  6  7  1  0  0  0
  6 27  1  0  0  0
  7 10  1  0  0  0
  7  8  1  0  0  0
  8  9  1  0  0  0
  8 25  1  0  0  0
  8 36  1  0  0  0
  9 10  1  0  0  0
  9 12  1  0  0  0
  9 37  1  0  0  0
 10 11  2  0  0  0
 12 13  1  0  0  0
 12 38  1  0  0  0
 13 14  1  0  0  0
 13 24  2  0  0  0
 14 15  1  0  0  0
 14 21  2  3  0  0
 15 20  1  0  0  0
 15 16  2  0  0  0
 16 17  1  0  0  0
 16 39  1  0  0  0
 17 18  1  0  0  0
 18 19  1  0  0  0
 18 20  2  0  0  0
 19 40  1  0  0  0
 19 41  1  0  0  0
 21 22  1  0  0  0
 22 23  1  0  0  0
 23 42  1  0  0  0
 23 43  1  0  0  0
 23 44  1  0  0  0
 25 26  1  0  0  0
 26 45  1  0  0  0
 26 46  1  0  0  0
 27 28  1  0  0  0
 27 29  2  0  0  0
M  CHG  1  28  -1
M  END
> <s_m_entry_id>
27674

> <s_m_entry_name>
data_maestro.6

> <s_m_Source_Path>
C:\Users\olshana1\Git\GramNeg-Accumulation\Gram Negative Permeation - OmpF

> <s_m_Source_File>
data_maestro.csv

> <i_m_Source_File_Index>
6

> <s_m_job_name>
glide-dock_Nicaido_neutral

> <s_i_glide_gridfile>
3POX-grid

> <i_i_glide_lignum>
7

> <i_i_glide_rotatable_bonds>
9

> <r_i_docking_score>
-4.18355236911196

> <r_i_glide_ligand_efficiency>
-0.139451745637065

> <r_i_glide_ligand_efficiency_sa>
-0.433308996564242

> <r_i_glide_ligand_efficiency_ln>
-0.950548681716247

> <r_i_glide_gscore>
-4.18355236911196

> <r_i_glide_lipo>
0

> <r_i_glide_hbond>
-0.765251062664816

> <r_i_glide_metal>
0

> <r_i_glide_rewards>
-0.299409761044713

> <r_i_glide_evdw>
-24.5097732543945

> <r_i_glide_ecoul>
-12.1194181442261

> <r_i_glide_erotb>
0.680611118548691

> <r_i_glide_esite>
-0.756101279597482

> <r_i_glide_emodel>
-56.90169741328

> <r_i_glide_energy>
-36.6291913986206

> <r_i_glide_einternal>
4.56033897399902

> <i_i_glide_confnum>
73

> <i_i_glide_posenum>
396

> <r_i_glide_eff_state_penalty>
0

> <r_glide_res:A132_vdw>
-0.0591358073278224

> <r_glide_res:A132_coul>
-44.9328052774231

> <r_glide_res:A132_hbond>
-0.0869643198275502

> <r_glide_res:A132_dist>
2.12570762152049

> <r_glide_res:A132_Eint>
-45.0789054045784

> <r_glide_res:A117_vdw>
-4.12081868091709

> <r_glide_res:A117_coul>
11.5646908870698

> <r_glide_res:A117_hbond>
0

> <r_glide_res:A117_dist>
2.54449553987211

> <r_glide_res:A117_Eint>
7.4438722061527

> <r_glide_res:A113_vdw>
-0.842051302668717

> <r_glide_res:A113_coul>
15.5287070274968

> <r_glide_res:A113_hbond>
0

> <r_glide_res:A113_dist>
4.40990614670305

> <r_glide_res:A113_Eint>
14.686655724828

> <r_glide_res:A82_vdw>
-1.53101135274181

> <r_glide_res:A82_coul>
-50.3605847321292

> <r_glide_res:A82_hbond>
-0.331155191804003

> <r_glide_res:A82_dist>
1.87054139959718

> <r_glide_res:A82_Eint>
-52.222751276675

> <r_glide_res:A42_vdw>
-2.91443930532837

> <r_glide_res:A42_coul>
-31.2267890727492

> <r_glide_res:A42_hbond>
0

> <r_glide_res:A42_dist>
2.47572826999934

> <r_glide_res:A42_Eint>
-34.1412283780775

> <r_glide_res:A16_vdw>
-1.93248397660066

> <r_glide_res:A16_coul>
-26.3102061582479

> <r_glide_res:A16_hbond>
0

> <r_glide_res:A16_dist>
2.45945322584777

> <r_glide_res:A16_Eint>
-28.2426901348486

> <s_m_source_file>
ligprep_Nicaido_neutral.maegz

> <i_m_source_file_index>
6

> <i_lp_mmshare_version>
58128

> <i_f3d_flags>
0

> <s_lp_Force_Field>
S-OPLS

> <r_lp_Energy>
53.728996

> <b_lp_Chiralities_Consistent>
1

> <s_lp_Variant>
Cefotaxime-1

> <s_epik_input>
W0NIM11DKD1PKU9bQ0gyXUMoPUMxQyg9TylbT0hdKVtDSDJdU1tDQEBIXShOMTIpW0NASF0oQzI9TylbTkhdQyg9TykvQyg9Ti9PW0NIM10pYzNbY0hdc2MobjMpW05IMl0=

> <s_epik_cmdline>
J2VwaWtfcHl0aG9uJywgJy1waHQnLCAnMC4wJywgJy1waCcsICc3LjQnLCAnLW50JywgJy1tYScsICc1MDAnLCAnLWltYWUnLCAnPGluZmlsZS5tYWU+JywgJy1vbWFlJywgJzxvdXRmaWxlLm1hZT4n

> <r_lp_tautomer_probability>
1

> <r_epik_Ionization_Penalty>
  0.0004

> <r_epik_Ionization_Penalty_Charging>
  0.0000

> <r_epik_Ionization_Penalty_Neutral>
  0.0004

> <r_epik_State_Penalty>
  0.0000

> <r_epik_Charging_Adjusted_Penalty>
5.45682606121274e-06

> <i_epik_Tot_Q>
-1

> <i_epik_Tot_abs_Q>
1

> <s_epik_Chemistry_Notes>
This compound has an ester and may undergo hydrolysis at high or low pH. This compound has an imine and may undergo hydrolysis. This compound contains an acetal/aminal-like group ( X-CH(R)-Y where X, Y are N, S, or O) that may be acid/base labile, releasing an aldehyde.

> <s_m_subgroup_title>
glide-dock_Nicaido_neutral_pv1

> <s_m_subgroupid>
glide-dock_Nicaido_neutral_pv1

> <b_m_subgroup_collapsed>
0

$$$$
Cefmetazole
                    3D
 Schrodinger Suite 2022-2.
 46 48  0  0  1  0            999 V2000
  -21.1235  -26.3723  -19.5518 C   0  0  0  0  0  0
  -21.5476  -25.5496  -18.4341 N   0  0  0  0  0  0
  -22.4876  -24.5998  -18.3167 C   0  0  0  0  0  0
  -23.5052  -24.0247  -19.6319 S   0  0  0  0  0  0
  -22.1681  -23.5825  -20.7723 C   0  0  0  0  0  0
  -22.5733  -22.5684  -21.8254 C   0  0  0  0  0  0
  -23.1358  -22.8956  -23.0239 C   0  0  0  0  0  0
  -23.4707  -21.9051  -23.9639 N   0  0  0  0  0  0
  -23.7299  -20.5291  -23.5809 C   0  0  2  0  0  0
  -23.9332  -20.2166  -25.0703 C   0  0  1  0  0  0
  -22.7999  -19.5215  -25.5944 O   0  0  0  0  0  0
  -22.8283  -19.2409  -26.9818 C   0  0  0  0  0  0
  -23.8263  -21.7513  -25.2982 C   0  0  0  0  0  0
  -23.9684  -22.5361  -26.2128 O   0  0  0  0  0  0
  -25.2203  -19.5496  -25.3127 N   0  0  0  0  0  0
  -26.4719  -20.0354  -25.2427 C   0  0  0  0  0  0
  -27.5944  -18.9953  -25.3070 C   0  0  0  0  0  0
  -29.2813  -19.6548  -25.5155 S   0  0  0  0  0  0
  -29.5250  -20.5670  -23.9635 C   0  0  0  0  0  0
  -29.3979  -22.0121  -24.2086 C   0  0  0  0  0  0
  -29.2976  -23.1495  -24.4125 N   0  0  0  0  0  0
  -26.7372  -21.2323  -25.1363 O   0  0  0  0  0  0
  -22.2925  -19.9014  -22.6724 S   0  0  0  0  0  0
  -22.3026  -21.1359  -21.3591 C   0  0  0  0  0  0
  -23.5690  -24.3625  -23.4141 C   0  0  0  0  0  0
  -24.7267  -24.4991  -23.8677 O   0  5  0  0  0  0
  -22.7524  -25.2883  -23.2134 O   0  0  0  0  0  0
  -22.5454  -24.1628  -17.0676 N   0  0  0  0  0  0
  -21.5689  -24.8855  -16.4134 N   0  0  0  0  0  0
  -20.9769  -25.7166  -17.2175 N   0  0  0  0  0  0
  -21.9605  -26.5460  -20.2291 H   0  0  0  0  0  0
  -20.3150  -25.8760  -20.0885 H   0  0  0  0  0  0
  -20.7689  -27.3397  -19.1995 H   0  0  0  0  0  0
  -21.7559  -24.4684  -21.2380 H   0  0  0  0  0  0
  -21.3394  -23.1758  -20.1920 H   0  0  0  0  0  0
  -24.6387  -20.4608  -22.9790 H   0  0  0  0  0  0
  -21.9005  -18.7503  -27.2754 H   0  0  0  0  0  0
  -22.9287  -20.1501  -27.5744 H   0  0  0  0  0  0
  -23.6472  -18.5624  -27.2134 H   0  0  0  0  0  0
  -25.1361  -18.5341  -25.3976 H   0  0  0  0  0  0
  -27.4045  -18.3496  -26.1613 H   0  0  0  0  0  0
  -27.5595  -18.3657  -24.4171 H   0  0  0  0  0  0
  -30.5262  -20.3737  -23.5779 H   0  0  0  0  0  0
  -28.8056  -20.2547  -23.2061 H   0  0  0  0  0  0
  -23.0616  -20.8637  -20.6253 H   0  0  0  0  0  0
  -21.3361  -21.0693  -20.8595 H   0  0  0  0  0  0
  1  2  1  0  0  0
  1 31  1  0  0  0
  1 32  1  0  0  0
  1 33  1  0  0  0
  2 30  1  0  0  0
  2  3  1  0  0  0
  3  4  1  0  0  0
  3 28  2  0  0  0
  4  5  1  0  0  0
  5  6  1  0  0  0
  5 34  1  0  0  0
  5 35  1  0  0  0
  6 24  1  0  0  0
  6  7  2  0  0  0
  7  8  1  0  0  0
  7 25  1  0  0  0
  8 13  1  0  0  0
  8  9  1  0  0  0
  9 10  1  0  0  0
  9 23  1  0  0  0
  9 36  1  0  0  0
 10 11  1  0  0  0
 10 13  1  0  0  0
 10 15  1  0  0  0
 11 12  1  0  0  0
 12 37  1  0  0  0
 12 38  1  0  0  0
 12 39  1  0  0  0
 13 14  2  0  0  0
 15 16  1  0  0  0
 15 40  1  0  0  0
 16 17  1  0  0  0
 16 22  2  0  0  0
 17 18  1  0  0  0
 17 41  1  0  0  0
 17 42  1  0  0  0
 18 19  1  0  0  0
 19 20  1  0  0  0
 19 43  1  0  0  0
 19 44  1  0  0  0
 20 21  3  0  0  0
 23 24  1  0  0  0
 24 45  1  0  0  0
 24 46  1  0  0  0
 25 26  1  0  0  0
 25 27  2  0  0  0
 28 29  1  0  0  0
 29 30  2  0  0  0
M  CHG  1  26  -1
M  END
> <s_m_entry_id>
27675

> <s_m_entry_name>
data_maestro.3

> <s_m_Source_Path>
C:\Users\olshana1\Git\GramNeg-Accumulation\Gram Negative Permeation - OmpF

> <s_m_Source_File>
data_maestro.csv

> <i_m_Source_File_Index>
3

> <s_m_job_name>
glide-dock_Nicaido_neutral

> <s_i_glide_gridfile>
3POX-grid

> <i_i_glide_lignum>
3

> <i_i_glide_rotatable_bonds>
10

> <r_i_docking_score>
-4.18094732812134

> <r_i_glide_ligand_efficiency>
-0.139364910937378

> <r_i_glide_ligand_efficiency_sa>
-0.433039180963035

> <r_i_glide_ligand_efficiency_ln>
-0.949956788018984

> <r_i_glide_gscore>
-4.18094732812134

> <r_i_glide_lipo>
0

> <r_i_glide_hbond>
-0.724198834175075

> <r_i_glide_metal>
0

> <r_i_glide_rewards>
-0.194297034162127

> <r_i_glide_evdw>
-29.5901756286621

> <r_i_glide_ecoul>
-11.1572227478027

> <r_i_glide_erotb>
0.638850535935238

> <r_i_glide_esite>
-0.748209802115864

> <r_i_glide_emodel>
-56.4979322526666

> <r_i_glide_energy>
-40.7473983764648

> <r_i_glide_einternal>
14.3434391021729

> <i_i_glide_confnum>
219

> <i_i_glide_posenum>
233

> <r_i_glide_eff_state_penalty>
0

> <r_glide_res:A132_vdw>
-1.69566813164869

> <r_glide_res:A132_coul>
-33.850725649631

> <r_glide_res:A132_hbond>
0

> <r_glide_res:A132_dist>
3.2418639827802

> <r_glide_res:A132_Eint>
-35.5463937812797

> <r_glide_res:A117_vdw>
-3.43400303384017

> <r_glide_res:A117_coul>
0.723108087825824

> <r_glide_res:A117_hbond>
-0.16

> <r_glide_res:A117_dist>
1.78550455320051

> <r_glide_res:A117_Eint>
-2.87089494601435

> <r_glide_res:A113_vdw>
-0.251612736181445

> <r_glide_res:A113_coul>
16.210953829993

> <r_glide_res:A113_hbond>
0

> <r_glide_res:A113_dist>
4.95897324837777

> <r_glide_res:A113_Eint>
15.9593410938116

> <r_glide_res:A82_vdw>
-0.866258779079896

> <r_glide_res:A82_coul>
-45.9694838405601

> <r_glide_res:A82_hbond>
-0.0049841013319186

> <r_glide_res:A82_dist>
2.40532969061054

> <r_glide_res:A82_Eint>
-46.8407267209719

> <r_glide_res:A42_vdw>
-1.25401595294422

> <r_glide_res:A42_coul>
-46.5608868718609

> <r_glide_res:A42_hbond>
-0.359214732843157

> <r_glide_res:A42_dist>
2.04866117750574

> <r_glide_res:A42_Eint>
-48.1741175576483

> <r_glide_res:A16_vdw>
-0.747715092401026

> <r_glide_res:A16_coul>
-19.5840540884989

> <r_glide_res:A16_hbond>
0

> <r_glide_res:A16_dist>
3.17365830210327

> <r_glide_res:A16_Eint>
-20.3317691809

> <s_m_source_file>
ligprep_Nicaido_neutral.maegz

> <i_m_source_file_index>
3

> <i_lp_mmshare_version>
58128

> <i_f3d_flags>
0

> <s_lp_Force_Field>
S-OPLS

> <r_lp_Energy>
32.161431

> <b_lp_Chiralities_Consistent>
1

> <s_lp_Variant>
Cefmetazole-1

> <s_epik_input>
bjFubmMobjFbQ0gzXSlTW0NIMl1DKD1DMkMoPU8pW09IXSlbQ0gyXVNbQ0BIXShOMjMpW0NAXShDMz1PKShPW0NIM10pW05IXUMoPU8pW0NIMl1TW0NIMl1DI04=

> <s_epik_cmdline>
J2VwaWtfcHl0aG9uJywgJy1waHQnLCAnMC4wJywgJy1waCcsICc3LjQnLCAnLW50JywgJy1tYScsICc1MDAnLCAnLWltYWUnLCAnPGluZmlsZS5tYWU+JywgJy1vbWFlJywgJzxvdXRmaWxlLm1hZT4n

> <r_lp_tautomer_probability>
1

> <r_epik_Ionization_Penalty>
  0.0000

> <r_epik_Ionization_Penalty_Charging>
  0.0000

> <r_epik_Ionization_Penalty_Neutral>
  0.0000

> <r_epik_State_Penalty>
  0.0000

> <r_epik_Charging_Adjusted_Penalty>
8.27330724987756e-06

> <i_epik_Tot_Q>
-1

> <i_epik_Tot_abs_Q>
1

> <s_epik_Chemistry_Notes>
This compound contains an acetal/aminal-like group ( X-CH(R)-Y where X, Y are N, S, or O) that may be acid/base labile, releasing an aldehyde.

> <s_m_subgroup_title>
glide-dock_Nicaido_neutral_pv1

> <s_m_subgroupid>
glide-dock_Nicaido_neutral_pv1

> <b_m_subgroup_collapsed>
0

$$$$
Carbenicillin
                    3D
 Schrodinger Suite 2022-2.
 42 44  0  0  1  0            999 V2000
  -25.2829  -22.9342  -17.2822 C   0  0  0  0  0  0
  -24.9033  -21.8443  -18.3061 C   0  0  0  0  0  0
  -24.6031  -22.3670  -19.7572 C   0  0  2  0  0  0
  -25.8447  -22.1524  -20.4781 N   0  0  0  0  0  0
  -26.6843  -20.9985  -20.2443 C   0  0  2  0  0  0
  -26.3690  -20.7501  -18.4708 S   0  0  0  0  0  0
  -27.8562  -21.7838  -20.8514 C   0  0  2  0  0  0
  -26.8033  -22.8687  -21.1580 C   0  0  0  0  0  0
  -26.7840  -23.9495  -21.7143 O   0  0  0  0  0  0
  -28.3812  -21.1034  -22.0330 N   0  0  0  0  0  0
  -29.1260  -21.6595  -23.0005 C   0  0  0  0  0  0
  -29.4639  -20.7328  -24.1908 C   0  0  2  0  0  0
  -30.9098  -20.2296  -24.1308 C   0  0  0  0  0  0
  -31.1503  -18.8412  -24.0239 C   0  0  0  0  0  0
  -32.4653  -18.3487  -23.9247 C   0  0  0  0  0  0
  -33.5543  -19.2402  -23.9307 C   0  0  0  0  0  0
  -33.3269  -20.6255  -24.0396 C   0  0  0  0  0  0
  -32.0114  -21.1183  -24.1385 C   0  0  0  0  0  0
  -29.1254  -21.4831  -25.5025 C   0  0  0  0  0  0
  -27.9691  -21.9495  -25.6100 O   0  5  0  0  0  0
  -29.9802  -21.5868  -26.4133 O   0  0  0  0  0  0
  -29.5057  -22.8357  -22.9589 O   0  0  0  0  0  0
  -24.0200  -23.7879  -19.8828 C   0  0  0  0  0  0
  -24.7692  -24.7496  -19.6117 O   0  5  0  0  0  0
  -22.8374  -23.9016  -20.2704 O   0  0  0  0  0  0
  -23.7143  -21.0350  -17.7614 C   0  0  0  0  0  0
  -24.4571  -23.6169  -17.0830 H   0  0  0  0  0  0
  -25.5676  -22.4907  -16.3273 H   0  0  0  0  0  0
  -26.1326  -23.5245  -17.6262 H   0  0  0  0  0  0
  -23.8898  -21.6934  -20.2342 H   0  0  0  0  0  0
  -26.3753  -20.1246  -20.8224 H   0  0  0  0  0  0
  -28.6135  -22.0554  -20.1132 H   0  0  0  0  0  0
  -28.1452  -20.1255  -22.1300 H   0  0  0  0  0  0
  -28.7960  -19.8705  -24.1607 H   0  0  0  0  0  0
  -30.3249  -18.1432  -24.0023 H   0  0  0  0  0  0
  -32.6345  -17.2849  -23.8329 H   0  0  0  0  0  0
  -34.5617  -18.8618  -23.8447 H   0  0  0  0  0  0
  -34.1603  -21.3123  -24.0399 H   0  0  0  0  0  0
  -31.8484  -22.1832  -24.2159 H   0  0  0  0  0  0
  -22.8224  -21.6553  -17.6709 H   0  0  0  0  0  0
  -23.4709  -20.1972  -18.4162 H   0  0  0  0  0  0
  -23.9367  -20.6231  -16.7759 H   0  0  0  0  0  0
  1  2  1  0  0  0
  1 27  1  0  0  0
  1 28  1  0  0  0
  1 29  1  0  0  0
  2  6  1  0  0  0
  2  3  1  0  0  0
  2 26  1  0  0  0
  3  4  1  0  0  0
  3 23  1  0  0  0
  3 30  1  0  0  0
  4  8  1  0  0  0
  4  5  1  0  0  0
  5  6  1  0  0  0
  5  7  1  0  0  0
  5 31  1  0  0  0
  7  8  1  0  0  0
  7 10  1  0  0  0
  7 32  1  0  0  0
  8  9  2  0  0  0
 10 11  1  0  0  0
 10 33  1  0  0  0
 11 12  1  0  0  0
 11 22  2  0  0  0
 12 13  1  0  0  0
 12 19  1  0  0  0
 12 34  1  0  0  0
 13 18  1  0  0  0
 13 14  2  0  0  0
 14 15  1  0  0  0
 14 35  1  0  0  0
 15 16  2  0  0  0
 15 36  1  0  0  0
 16 17  1  0  0  0
 16 37  1  0  0  0
 17 18  2  0  0  0
 17 38  1  0  0  0
 18 39  1  0  0  0
 19 20  1  0  0  0
 19 21  2  0  0  0
 23 24  1  0  0  0
 23 25  2  0  0  0
 26 40  1  0  0  0
 26 41  1  0  0  0
 26 42  1  0  0  0
M  CHG  2  20  -1  24  -1
M  END
> <s_m_entry_id>
27676

> <s_m_entry_name>
data_maestro.24

> <s_m_Source_Path>
C:\Users\olshana1\Git\GramNeg-Accumulation\Gram Negative Permeation - OmpF

> <s_m_Source_File>
data_maestro.csv

> <i_m_Source_File_Index>
24

> <s_m_job_name>
glide-dock_Nicaido_neutral

> <s_i_glide_gridfile>
3POX-grid

> <i_i_glide_lignum>
31

> <i_i_glide_rotatable_bonds>
6

> <r_i_docking_score>
-4.17749784462717

> <r_i_glide_ligand_efficiency>
-0.160672994024122

> <r_i_glide_ligand_efficiency_sa>
-0.475993112578758

> <r_i_glide_ligand_efficiency_ln>
-0.981071661322229

> <r_i_glide_gscore>
-4.17749784462717

> <r_i_glide_lipo>
0

> <r_i_glide_hbond>
-0.793134790657046

> <r_i_glide_metal>
0

> <r_i_glide_rewards>
-0.842777340094003

> <r_i_glide_evdw>
-18.3069496154785

> <r_i_glide_ecoul>
-10.8386526107788

> <r_i_glide_erotb>
0.409918473255716

> <r_i_glide_esite>
-0.410358814741087

> <r_i_glide_emodel>
-51.7761649549851

> <r_i_glide_energy>
-29.1456022262573

> <r_i_glide_einternal>
2.44965577125549

> <i_i_glide_confnum>
5

> <i_i_glide_posenum>
231

> <r_i_glide_eff_state_penalty>
0

> <r_glide_res:A132_vdw>
-0.124781978560159

> <r_glide_res:A132_coul>
-68.2479797587935

> <r_glide_res:A132_hbond>
-0.228072192111265

> <r_glide_res:A132_dist>
2.00868565896548

> <r_glide_res:A132_Eint>
-68.6008339294649

> <r_glide_res:A117_vdw>
-1.69341046933146

> <r_glide_res:A117_coul>
40.649385441955

> <r_glide_res:A117_hbond>
0

> <r_glide_res:A117_dist>
3.0598976570273

> <r_glide_res:A117_Eint>
38.9559749726236

> <r_glide_res:A113_vdw>
-2.13432376137729

> <r_glide_res:A113_coul>
40.8066513246668

> <r_glide_res:A113_hbond>
0

> <r_glide_res:A113_dist>
3.28691835631682

> <r_glide_res:A113_Eint>
38.6723275632895

> <r_glide_res:A82_vdw>
-1.82696575984873

> <r_glide_res:A82_coul>
-63.1340972506222

> <r_glide_res:A82_hbond>
-0.052002564606198

> <r_glide_res:A82_dist>
2.36999358848451

> <r_glide_res:A82_Eint>
-65.0130655750771

> <r_glide_res:A42_vdw>
3.78096751397704

> <r_glide_res:A42_coul>
-76.4653508125832

> <r_glide_res:A42_hbond>
-0.313060033939583

> <r_glide_res:A42_dist>
1.63540353269447

> <r_glide_res:A42_Eint>
-72.9974433325457

> <r_glide_res:A16_vdw>
0.45578334811841

> <r_glide_res:A16_coul>
-66.9490367156374

> <r_glide_res:A16_hbond>
-0.2

> <r_glide_res:A16_dist>
1.78618458668217

> <r_glide_res:A16_Eint>
-66.693253367519

> <s_m_source_file>
ligprep_Nicaido_neutral.maegz

> <i_m_source_file_index>
24

> <i_lp_mmshare_version>
58128

> <i_f3d_flags>
0

> <s_lp_Force_Field>
S-OPLS

> <r_lp_Energy>
37.112724

> <b_lp_Chiralities_Consistent>
1

> <s_lp_Variant>
Carbenicillin-1

> <s_epik_input>
W09IXUMoPU8pW0NAQEhdMUMoW0NIM10pKFtDSDNdKVNbQ0BASF0oTjEyKVtDQEhdKEMyPU8pW05IXUMoPU8pW0NAQEhdKEMoPU8pW09IXSljM1tjSF1bY0hdW2NIXVtjSF1bY0hdMw==

> <s_epik_cmdline>
J2VwaWtfcHl0aG9uJywgJy1waHQnLCAnMC4wJywgJy1waCcsICc3LjQnLCAnLW50JywgJy1tYScsICc1MDAnLCAnLWltYWUnLCAnPGluZmlsZS5tYWU+JywgJy1vbWFlJywgJzxvdXRmaWxlLm1hZT4n

> <r_lp_tautomer_probability>
1

> <r_epik_Ionization_Penalty>
  0.0000

> <r_epik_Ionization_Penalty_Charging>
  0.0000

> <r_epik_Ionization_Penalty_Neutral>
  0.0000

> <r_epik_State_Penalty>
  0.0000

> <r_epik_Charging_Adjusted_Penalty>
4.98035685666923e-05

> <i_epik_Tot_Q>
-2

> <i_epik_Tot_abs_Q>
2

> <s_epik_Chemistry_Notes>
This compound contains an acetal/aminal-like group ( X-CH(R)-Y where X, Y are N, S, or O) that may be acid/base labile, releasing an aldehyde.

> <s_m_subgroup_title>
glide-dock_Nicaido_neutral_pv1

> <s_m_subgroupid>
glide-dock_Nicaido_neutral_pv1

> <b_m_subgroup_collapsed>
0

$$$$
Piperacillin
                    3D
 Schrodinger Suite 2022-2.
 62 65  0  0  1  0            999 V2000
  -31.9937  -19.1044  -24.8923 C   0  0  0  0  0  0
  -31.0928  -19.2141  -26.1299 C   0  0  0  0  0  0
  -29.7271  -19.5875  -25.7464 N   0  0  0  0  0  0
  -28.7981  -18.4848  -25.5644 C   0  0  0  0  0  0
  -27.8699  -18.7492  -24.3793 C   0  0  0  0  0  0
  -27.2536  -20.0903  -24.3755 N   0  0  0  0  0  0
  -27.9689  -21.1470  -24.8811 C   0  0  0  0  0  0
  -29.3264  -20.8701  -25.6128 C   0  0  0  0  0  0
  -29.9821  -21.8330  -26.0257 O   0  0  0  0  0  0
  -27.6292  -22.3354  -24.8132 O   0  0  0  0  0  0
  -26.0231  -20.1702  -23.7696 C   0  0  0  0  0  0
  -25.3072  -21.2877  -23.9892 N   0  0  0  0  0  0
  -23.9996  -21.6120  -23.4279 C   0  0  2  0  0  0
  -22.9389  -21.4772  -24.4754 C   0  0  0  0  0  0
  -21.6342  -21.0730  -24.1039 C   0  0  0  0  0  0
  -20.6116  -20.9114  -25.0563 C   0  0  0  0  0  0
  -20.8777  -21.1478  -26.4148 C   0  0  0  0  0  0
  -22.1644  -21.5477  -26.8142 C   0  0  0  0  0  0
  -23.1787  -21.7135  -25.8535 C   0  0  0  0  0  0
  -23.9502  -23.0754  -22.9542 C   0  0  0  0  0  0
  -22.9693  -23.3915  -22.0980 N   0  0  0  0  0  0
  -22.8044  -24.6948  -21.4710 C   0  0  1  0  0  0
  -21.4626  -24.8203  -20.7354 C   0  0  2  0  0  0
  -22.2078  -24.8436  -19.4950 N   0  0  0  0  0  0
  -23.4420  -24.7691  -20.0779 C   0  0  0  0  0  0
  -24.5602  -24.7331  -19.6125 O   0  0  0  0  0  0
  -21.6733  -24.4292  -18.2242 C   0  0  2  0  0  0
  -20.7036  -23.2537  -18.6009 C   0  0  0  0  0  0
  -21.4504  -21.9133  -18.4583 C   0  0  0  0  0  0
  -20.2847  -23.4744  -20.3788 S   0  0  0  0  0  0
  -19.4116  -23.1886  -17.7606 C   0  0  0  0  0  0
  -21.0789  -25.6634  -17.5276 C   0  0  0  0  0  0
  -21.5688  -25.9493  -16.4129 O   0  5  0  0  0  0
  -20.2086  -26.3497  -18.1180 O   0  0  0  0  0  0
  -24.7769  -23.9027  -23.3524 O   0  0  0  0  0  0
  -25.5532  -19.2677  -23.0790 O   0  0  0  0  0  0
  -33.0041  -18.8048  -25.1703 H   0  0  0  0  0  0
  -32.0636  -20.0558  -24.3653 H   0  0  0  0  0  0
  -31.6119  -18.3617  -24.1912 H   0  0  0  0  0  0
  -31.0875  -18.2659  -26.6673 H   0  0  0  0  0  0
  -31.5230  -19.9431  -26.8139 H   0  0  0  0  0  0
  -28.2123  -18.3523  -26.4734 H   0  0  0  0  0  0
  -29.3324  -17.5501  -25.4028 H   0  0  0  0  0  0
  -28.4282  -18.6441  -23.4477 H   0  0  0  0  0  0
  -27.1215  -17.9551  -24.4133 H   0  0  0  0  0  0
  -25.7672  -22.0341  -24.4879 H   0  0  0  0  0  0
  -23.7827  -20.9694  -22.5720 H   0  0  0  0  0  0
  -21.4116  -20.8701  -23.0660 H   0  0  0  0  0  0
  -19.6263  -20.5983  -24.7434 H   0  0  0  0  0  0
  -20.0983  -21.0221  -27.1515 H   0  0  0  0  0  0
  -22.3695  -21.7289  -27.8597 H   0  0  0  0  0  0
  -24.1578  -22.0142  -26.1929 H   0  0  0  0  0  0
  -22.3255  -22.6665  -21.8109 H   0  0  0  0  0  0
  -23.0061  -25.5449  -22.1232 H   0  0  0  0  0  0
  -20.9430  -25.7597  -20.9318 H   0  0  0  0  0  0
  -22.4872  -24.0580  -17.5975 H   0  0  0  0  0  0
  -21.7333  -21.7257  -17.4221 H   0  0  0  0  0  0
  -22.3638  -21.8996  -19.0541 H   0  0  0  0  0  0
  -20.8329  -21.0761  -18.7861 H   0  0  0  0  0  0
  -19.6353  -23.1179  -16.6959 H   0  0  0  0  0  0
  -18.7806  -24.0630  -17.9158 H   0  0  0  0  0  0
  -18.8140  -22.3171  -18.0284 H   0  0  0  0  0  0
  1  2  1  0  0  0
  1 37  1  0  0  0
  1 38  1  0  0  0
  1 39  1  0  0  0
  2  3  1  0  0  0
  2 40  1  0  0  0
  2 41  1  0  0  0
  3  8  1  0  0  0
  3  4  1  0  0  0
  4  5  1  0  0  0
  4 42  1  0  0  0
  4 43  1  0  0  0
  5  6  1  0  0  0
  5 44  1  0  0  0
  5 45  1  0  0  0
  6  7  1  0  0  0
  6 11  1  0  0  0
  7  8  1  0  0  0
  7 10  2  0  0  0
  8  9  2  0  0  0
 11 12  1  0  0  0
 11 36  2  0  0  0
 12 13  1  0  0  0
 12 46  1  0  0  0
 13 14  1  0  0  0
 13 20  1  0  0  0
 13 47  1  0  0  0
 14 19  1  0  0  0
 14 15  2  0  0  0
 15 16  1  0  0  0
 15 48  1  0  0  0
 16 17  2  0  0  0
 16 49  1  0  0  0
 17 18  1  0  0  0
 17 50  1  0  0  0
 18 19  2  0  0  0
 18 51  1  0  0  0
 19 52  1  0  0  0
 20 21  1  0  0  0
 20 35  2  0  0  0
 21 22  1  0  0  0
 21 53  1  0  0  0
 22 25  1  0  0  0
 22 23  1  0  0  0
 22 54  1  0  0  0
 23 30  1  0  0  0
 23 24  1  0  0  0
 23 55  1  0  0  0
 24 25  1  0  0  0
 24 27  1  0  0  0
 25 26  2  0  0  0
 27 28  1  0  0  0
 27 32  1  0  0  0
 27 56  1  0  0  0
 28 29  1  0  0  0
 28 30  1  0  0  0
 28 31  1  0  0  0
 29 57  1  0  0  0
 29 58  1  0  0  0
 29 59  1  0  0  0
 31 60  1  0  0  0
 31 61  1  0  0  0
 31 62  1  0  0  0
 32 33  1  0  0  0
 32 34  2  0  0  0
M  CHG  1  33  -1
M  END
> <s_m_entry_id>
27677

> <s_m_entry_name>
data_maestro.11

> <s_m_Source_Path>
C:\Users\olshana1\Git\GramNeg-Accumulation\Gram Negative Permeation - OmpF

> <s_m_Source_File>
data_maestro.csv

> <i_m_Source_File_Index>
11

> <s_m_job_name>
glide-dock_Nicaido_neutral

> <s_i_glide_gridfile>
3POX-grid

> <i_i_glide_lignum>
15

> <i_i_glide_rotatable_bonds>
9

> <r_i_docking_score>
-4.17695134138292

> <r_i_glide_ligand_efficiency>
-0.116026426149526

> <r_i_glide_ligand_efficiency_sa>
-0.38311081763735

> <r_i_glide_ligand_efficiency_ln>
-0.911297934505724

> <r_i_glide_gscore>
-4.17695134138292

> <r_i_glide_lipo>
-0.202850650420877

> <r_i_glide_hbond>
-0.836431525766434

> <r_i_glide_metal>
0

> <r_i_glide_rewards>
0.000182678042278213

> <r_i_glide_evdw>
-28.3395500183105

> <r_i_glide_ecoul>
-10.0089616775513

> <r_i_glide_erotb>
0.461572583116075

> <r_i_glide_esite>
-0.681102673805748

> <r_i_glide_emodel>
-56.8948911408862

> <r_i_glide_energy>
-38.3485116958618

> <r_i_glide_einternal>
8.92216014862061

> <i_i_glide_confnum>
203

> <i_i_glide_posenum>
125

> <r_i_glide_eff_state_penalty>
0

> <r_glide_res:A132_vdw>
-0.784461124908522

> <r_glide_res:A132_coul>
-26.7845014517172

> <r_glide_res:A132_hbond>
-0.0760204917592602

> <r_glide_res:A132_dist>
2.14564176095271

> <r_glide_res:A132_Eint>
-27.6449830683849

> <r_glide_res:A117_vdw>
-3.22519613413352

> <r_glide_res:A117_coul>
10.8388413818566

> <r_glide_res:A117_hbond>
0

> <r_glide_res:A117_dist>
2.11963978278252

> <r_glide_res:A117_Eint>
7.61364524772312

> <r_glide_res:A113_vdw>
-0.33011753438987

> <r_glide_res:A113_coul>
15.2225511785735

> <r_glide_res:A113_hbond>
0

> <r_glide_res:A113_dist>
5.52450127225055

> <r_glide_res:A113_Eint>
14.8924336441836

> <r_glide_res:A82_vdw>
-1.70756367112196

> <r_glide_res:A82_coul>
-24.023726608918

> <r_glide_res:A82_hbond>
0

> <r_glide_res:A82_dist>
2.78519318584816

> <r_glide_res:A82_Eint>
-25.7312902800399

> <r_glide_res:A42_vdw>
-0.194212031143226

> <r_glide_res:A42_coul>
-22.8701852113056

> <r_glide_res:A42_hbond>
-0.273287764575743

> <r_glide_res:A42_dist>
1.69036292444636

> <r_glide_res:A42_Eint>
-23.3376850070246

> <r_glide_res:A16_vdw>
-1.51303441516021

> <r_glide_res:A16_coul>
-12.6077766969242

> <r_glide_res:A16_hbond>
-0.111646609359487

> <r_glide_res:A16_dist>
2.16824574586604

> <r_glide_res:A16_Eint>
-14.2324577214439

> <s_m_source_file>
ligprep_Nicaido_neutral.maegz

> <i_m_source_file_index>
11

> <i_lp_mmshare_version>
58128

> <i_f3d_flags>
0

> <s_lp_Force_Field>
S-OPLS

> <r_lp_Energy>
67.572455

> <b_lp_Chiralities_Consistent>
1

> <s_lp_Variant>
Piperacillin-1

> <s_epik_input>
W0NIM11bQ0gyXU4xW0NIMl1bQ0gyXU4oQyg9TylDMT1PKUMoPU8pW05IXVtDQEhdKGMyW2NIXVtjSF1bY0hdW2NIXVtjSF0yKUMoPU8pW05IXVtDQEBIXTNDKD1PKU4oW0NAQEhdMzQpW0NASF0oQyhTNCkoW0NIM10pW0NIM10pQyg9TylbT0hd

> <s_epik_cmdline>
J2VwaWtfcHl0aG9uJywgJy1waHQnLCAnMC4wJywgJy1waCcsICc3LjQnLCAnLW50JywgJy1tYScsICc1MDAnLCAnLWltYWUnLCAnPGluZmlsZS5tYWU+JywgJy1vbWFlJywgJzxvdXRmaWxlLm1hZT4n

> <r_lp_tautomer_probability>
1

> <r_epik_Ionization_Penalty>
  0.0049

> <r_epik_Ionization_Penalty_Charging>
  0.0000

> <r_epik_Ionization_Penalty_Neutral>
  0.0049

> <r_epik_State_Penalty>
  0.0000

> <r_epik_Charging_Adjusted_Penalty>
1.13204004886318e-05

> <i_epik_Tot_Q>
-1

> <i_epik_Tot_abs_Q>
1

> <s_epik_Chemistry_Notes>
This compound contains an acetal/aminal-like group ( X-CH(R)-Y where X, Y are N, S, or O) that may be acid/base labile, releasing an aldehyde.

> <s_m_subgroup_title>
glide-dock_Nicaido_neutral_pv1

> <s_m_subgroupid>
glide-dock_Nicaido_neutral_pv1

> <b_m_subgroup_collapsed>
0

$$$$
Cefotaxime
                    3D
 Schrodinger Suite 2022-2.
 46 48  0  0  1  0            999 V2000
  -30.0295  -17.8589  -27.5044 C   0  0  0  0  0  0
  -29.8421  -18.1043  -26.0137 C   0  0  0  0  0  0
  -28.7765  -18.8815  -25.7483 O   0  0  0  0  0  0
  -28.2579  -18.9658  -24.4245 C   0  0  0  0  0  0
  -29.0706  -19.8571  -23.4873 C   0  0  0  0  0  0
  -28.9979  -21.2095  -23.4443 C   0  0  0  0  0  0
  -29.8000  -21.8905  -22.5219 N   0  0  0  0  0  0
  -31.2319  -21.6170  -22.5107 C   0  0  1  0  0  0
  -31.2857  -22.6567  -21.3748 C   0  0  2  0  0  0
  -29.9406  -23.1469  -21.9544 C   0  0  0  0  0  0
  -29.2896  -24.1718  -22.0096 O   0  0  0  0  0  0
  -32.4075  -23.6007  -21.4483 N   0  0  0  0  0  0
  -32.7804  -24.4140  -22.4572 C   0  0  0  0  0  0
  -34.0351  -25.2553  -22.1622 C   0  0  0  0  0  0
  -34.9839  -24.6968  -21.1391 C   0  0  0  0  0  0
  -35.8107  -25.5280  -20.4131 C   0  0  0  0  0  0
  -36.7666  -24.6634  -19.2343 S   0  0  0  0  0  0
  -36.0296  -23.1734  -19.7919 C   0  0  0  0  0  0
  -36.3187  -21.9500  -19.2154 N   0  0  0  0  0  0
  -35.1772  -23.3450  -20.8014 N   0  0  0  0  0  0
  -34.3117  -26.3846  -22.7044 N   0  0  0  0  0  0
  -33.3261  -26.8905  -23.5716 O   0  0  0  0  0  0
  -33.8205  -28.0843  -24.1517 C   0  0  0  0  0  0
  -32.1693  -24.4902  -23.5256 O   0  0  0  0  0  0
  -31.5584  -19.8283  -22.2361 S   0  0  0  0  0  0
  -29.8960  -19.1138  -22.4404 C   0  0  0  0  0  0
  -28.1900  -22.1101  -24.4288 C   0  0  0  0  0  0
  -28.7685  -23.1499  -24.8132 O   0  5  0  0  0  0
  -27.0626  -21.7375  -24.8126 O   0  0  0  0  0  0
  -30.6106  -17.6152  -25.1885 O   0  0  0  0  0  0
  -30.4096  -18.7513  -27.9957 H   0  0  0  0  0  0
  -30.7369  -17.0444  -27.6621 H   0  0  0  0  0  0
  -29.0804  -17.5738  -27.9604 H   0  0  0  0  0  0
  -28.2033  -17.9603  -24.0135 H   0  0  0  0  0  0
  -27.2295  -19.3204  -24.4731 H   0  0  0  0  0  0
  -31.6919  -21.9407  -23.4472 H   0  0  0  0  0  0
  -31.2075  -22.1635  -20.4132 H   0  0  0  0  0  0
  -33.0076  -23.6015  -20.6330 H   0  0  0  0  0  0
  -35.8914  -26.6032  -20.4745 H   0  0  0  0  0  0
  -35.7052  -21.1658  -19.4047 H   0  0  0  0  0  0
  -36.7743  -21.9093  -18.3122 H   0  0  0  0  0  0
  -33.0649  -28.5093  -24.8127 H   0  0  0  0  0  0
  -34.0575  -28.8307  -23.3919 H   0  0  0  0  0  0
  -34.7144  -27.8931  -24.7473 H   0  0  0  0  0  0
  -29.3697  -19.1587  -21.4863 H   0  0  0  0  0  0
  -30.0022  -18.0572  -22.6858 H   0  0  0  0  0  0
  1  2  1  0  0  0
  1 31  1  0  0  0
  1 32  1  0  0  0
  1 33  1  0  0  0
  2  3  1  0  0  0
  2 30  2  0  0  0
  3  4  1  0  0  0
  4  5  1  0  0  0
  4 34  1  0  0  0
  4 35  1  0  0  0
  5 26  1  0  0  0
  5  6  2  0  0  0
  6  7  1  0  0  0
  6 27  1  0  0  0
  7 10  1  0  0  0
  7  8  1  0  0  0
  8  9  1  0  0  0
  8 25  1  0  0  0
  8 36  1  0  0  0
  9 10  1  0  0  0
  9 12  1  0  0  0
  9 37  1  0  0  0
 10 11  2  0  0  0
 12 13  1  0  0  0
 12 38  1  0  0  0
 13 14  1  0  0  0
 13 24  2  0  0  0
 14 15  1  0  0  0
 14 21  2  3  0  0
 15 20  1  0  0  0
 15 16  2  0  0  0
 16 17  1  0  0  0
 16 39  1  0  0  0
 17 18  1  0  0  0
 18 19  1  0  0  0
 18 20  2  0  0  0
 19 40  1  0  0  0
 19 41  1  0  0  0
 21 22  1  0  0  0
 22 23  1  0  0  0
 23 42  1  0  0  0
 23 43  1  0  0  0
 23 44  1  0  0  0
 25 26  1  0  0  0
 26 45  1  0  0  0
 26 46  1  0  0  0
 27 28  1  0  0  0
 27 29  2  0  0  0
M  CHG  1  28  -1
M  END
> <s_m_entry_id>
27678

> <s_m_entry_name>
data_maestro.6

> <s_m_Source_Path>
C:\Users\olshana1\Git\GramNeg-Accumulation\Gram Negative Permeation - OmpF

> <s_m_Source_File>
data_maestro.csv

> <i_m_Source_File_Index>
6

> <s_m_job_name>
glide-dock_Nicaido_neutral

> <s_i_glide_gridfile>
3POX-grid

> <i_i_glide_lignum>
8

> <i_i_glide_rotatable_bonds>
9

> <r_i_docking_score>
-4.17477150948188

> <r_i_glide_ligand_efficiency>
-0.139159050316063

> <r_i_glide_ligand_efficiency_sa>
-0.432399524149513

> <r_i_glide_ligand_efficiency_ln>
-0.948553574733164

> <r_i_glide_gscore>
-4.17477150948188

> <r_i_glide_lipo>
0

> <r_i_glide_hbond>
-0.95005534007429

> <r_i_glide_metal>
0

> <r_i_glide_rewards>
-0.293188848882956

> <r_i_glide_evdw>
-31.9658699035645

> <r_i_glide_ecoul>
-9.83235645294189

> <r_i_glide_erotb>
0.680611118548691

> <r_i_glide_esite>
-0.538991475953816

> <r_i_glide_emodel>
-59.8293033654749

> <r_i_glide_energy>
-41.7982263565063

> <r_i_glide_einternal>
7.28831052780151

> <i_i_glide_confnum>
121

> <i_i_glide_posenum>
296

> <r_i_glide_eff_state_penalty>
0

> <r_glide_res:A132_vdw>
-1.04156142165123

> <r_glide_res:A132_coul>
-29.922530818796

> <r_glide_res:A132_hbond>
-0.0148330253402337

> <r_glide_res:A132_dist>
2.39489140279091

> <r_glide_res:A132_Eint>
-30.9789252657874

> <r_glide_res:A117_vdw>
-4.06146196526343

> <r_glide_res:A117_coul>
24.6558673117454

> <r_glide_res:A117_hbond>
0

> <r_glide_res:A117_dist>
2.1105213877586

> <r_glide_res:A117_Eint>
20.594405346482

> <r_glide_res:A113_vdw>
-4.52795599557886

> <r_glide_res:A113_coul>
16.3418160540164

> <r_glide_res:A113_hbond>
-0.198059586336929

> <r_glide_res:A113_dist>
2.25242551707884

> <r_glide_res:A113_Eint>
11.6158004721006

> <r_glide_res:A82_vdw>
-2.86240607769447

> <r_glide_res:A82_coul>
-47.2497011789999

> <r_glide_res:A82_hbond>
-0.140141554888329

> <r_glide_res:A82_dist>
2.14964611277918

> <r_glide_res:A82_Eint>
-50.2522488115828

> <r_glide_res:A42_vdw>
1.37681768034799

> <r_glide_res:A42_coul>
-56.3109104288744

> <r_glide_res:A42_hbond>
-0.426287517649944

> <r_glide_res:A42_dist>
1.84653181990941

> <r_glide_res:A42_Eint>
-55.3603802661764

> <r_glide_res:A16_vdw>
-1.03676951082033

> <r_glide_res:A16_coul>
-30.974192254826

> <r_glide_res:A16_hbond>
0

> <r_glide_res:A16_dist>
1.93675313233672

> <r_glide_res:A16_Eint>
-32.0109617656464

> <s_m_source_file>
ligprep_Nicaido_neutral.maegz

> <i_m_source_file_index>
6

> <i_lp_mmshare_version>
58128

> <i_f3d_flags>
0

> <s_lp_Force_Field>
S-OPLS

> <r_lp_Energy>
51.702138

> <b_lp_Chiralities_Consistent>
1

> <s_lp_Variant>
Cefotaxime-2

> <s_epik_input>
W0NIM11DKD1PKU9bQ0gyXUMoPUMxQyg9TylbT0hdKVtDSDJdU1tDQEBIXShOMTIpW0NASF0oQzI9TylbTkhdQyg9TykvQyg9Ti9PW0NIM10pYzNbY0hdc2MobjMpW05IMl0=

> <s_epik_cmdline>
J2VwaWtfcHl0aG9uJywgJy1waHQnLCAnMC4wJywgJy1waCcsICc3LjQnLCAnLW50JywgJy1tYScsICc1MDAnLCAnLWltYWUnLCAnPGluZmlsZS5tYWU+JywgJy1vbWFlJywgJzxvdXRmaWxlLm1hZT4n

> <r_lp_tautomer_probability>
1

> <r_epik_Ionization_Penalty>
  0.0004

> <r_epik_Ionization_Penalty_Charging>
  0.0000

> <r_epik_Ionization_Penalty_Neutral>
  0.0004

> <r_epik_State_Penalty>
  0.0000

> <r_epik_Charging_Adjusted_Penalty>
5.45682606121274e-06

> <i_epik_Tot_Q>
-1

> <i_epik_Tot_abs_Q>
1

> <s_epik_Chemistry_Notes>
This compound has an ester and may undergo hydrolysis at high or low pH. This compound has an imine and may undergo hydrolysis. This compound contains an acetal/aminal-like group ( X-CH(R)-Y where X, Y are N, S, or O) that may be acid/base labile, releasing an aldehyde.

> <s_m_subgroup_title>
glide-dock_Nicaido_neutral_pv1

> <s_m_subgroupid>
glide-dock_Nicaido_neutral_pv1

> <b_m_subgroup_collapsed>
0

$$$$
Sulbenicillin
                    3D
 Schrodinger Suite 2022-2.
 43 45  0  0  1  0            999 V2000
  -21.9558  -21.2968  -24.5392 C   0  0  0  0  0  0
  -23.4641  -21.6204  -24.5454 C   0  0  0  0  0  0
  -23.8678  -22.9080  -23.7310 C   0  0  2  0  0  0
  -24.8359  -22.4506  -22.7627 N   0  0  0  0  0  0
  -25.0083  -21.0815  -22.3261 C   0  0  1  0  0  0
  -24.3548  -20.2082  -23.7783 S   0  0  0  0  0  0
  -26.4811  -21.4201  -22.0317 C   0  0  2  0  0  0
  -26.0818  -22.8606  -22.3876 C   0  0  0  0  0  0
  -26.6127  -23.9498  -22.4131 O   0  0  0  0  0  0
  -27.3892  -20.7358  -22.9579 N   0  0  0  0  0  0
  -28.4282  -21.2333  -23.6553 C   0  0  0  0  0  0
  -29.3331  -20.1733  -24.2907 C   0  0  2  0  0  0
  -30.3581  -19.7250  -23.2564 C   0  0  0  0  0  0
  -31.4347  -20.5550  -22.8657 C   0  0  0  0  0  0
  -32.3208  -20.1384  -21.8544 C   0  0  0  0  0  0
  -32.1192  -18.9020  -21.2136 C   0  0  0  0  0  0
  -31.0339  -18.0864  -21.5775 C   0  0  0  0  0  0
  -30.1681  -18.4863  -22.6077 C   0  0  0  0  0  0
  -30.0725  -20.6248  -25.9480 S   0  0  0  0  0  0
  -31.5342  -20.6059  -25.7986 O   0  0  0  0  0  0
  -29.5600  -21.9495  -26.3436 O   0  5  0  0  0  0
  -29.5758  -19.5486  -26.8132 O   0  0  0  0  0  0
  -28.6956  -22.4338  -23.7336 O   0  0  0  0  0  0
  -22.7552  -23.7122  -23.0323 C   0  0  0  0  0  0
  -22.3280  -23.3196  -21.9252 O   0  5  0  0  0  0
  -22.3689  -24.7498  -23.6132 O   0  0  0  0  0  0
  -23.9430  -21.7417  -26.0012 C   0  0  0  0  0  0
  -21.3716  -22.0978  -24.9925 H   0  0  0  0  0  0
  -21.7473  -20.3847  -25.0999 H   0  0  0  0  0  0
  -21.5850  -21.1382  -23.5256 H   0  0  0  0  0  0
  -24.3855  -23.6066  -24.3913 H   0  0  0  0  0  0
  -24.4285  -20.8474  -21.4321 H   0  0  0  0  0  0
  -26.7384  -21.2626  -20.9840 H   0  0  0  0  0  0
  -27.2855  -19.7302  -22.9723 H   0  0  0  0  0  0
  -28.7011  -19.3153  -24.5252 H   0  0  0  0  0  0
  -31.5781  -21.5179  -23.3336 H   0  0  0  0  0  0
  -33.1383  -20.7755  -21.5499 H   0  0  0  0  0  0
  -32.7692  -18.5925  -20.4134 H   0  0  0  0  0  0
  -30.8617  -17.1528  -21.0636 H   0  0  0  0  0  0
  -29.3362  -17.8500  -22.8719 H   0  0  0  0  0  0
  -23.4781  -22.5863  -26.5088 H   0  0  0  0  0  0
  -25.0234  -21.8679  -26.0447 H   0  0  0  0  0  0
  -23.7027  -20.8432  -26.5723 H   0  0  0  0  0  0
  1  2  1  0  0  0
  1 28  1  0  0  0
  1 29  1  0  0  0
  1 30  1  0  0  0
  2  6  1  0  0  0
  2  3  1  0  0  0
  2 27  1  0  0  0
  3  4  1  0  0  0
  3 24  1  0  0  0
  3 31  1  0  0  0
  4  8  1  0  0  0
  4  5  1  0  0  0
  5  6  1  0  0  0
  5  7  1  0  0  0
  5 32  1  0  0  0
  7  8  1  0  0  0
  7 10  1  0  0  0
  7 33  1  0  0  0
  8  9  2  0  0  0
 10 11  1  0  0  0
 10 34  1  0  0  0
 11 12  1  0  0  0
 11 23  2  0  0  0
 12 13  1  0  0  0
 12 19  1  0  0  0
 12 35  1  0  0  0
 13 18  1  0  0  0
 13 14  2  0  0  0
 14 15  1  0  0  0
 14 36  1  0  0  0
 15 16  2  0  0  0
 15 37  1  0  0  0
 16 17  1  0  0  0
 16 38  1  0  0  0
 17 18  2  0  0  0
 17 39  1  0  0  0
 18 40  1  0  0  0
 19 20  2  0  0  0
 19 21  1  0  0  0
 19 22  2  0  0  0
 24 25  1  0  0  0
 24 26  2  0  0  0
 27 41  1  0  0  0
 27 42  1  0  0  0
 27 43  1  0  0  0
M  CHG  2  21  -1  25  -1
M  END
> <s_m_entry_id>
27679

> <s_m_entry_name>
data_maestro.23

> <s_m_Source_Path>
C:\Users\olshana1\Git\GramNeg-Accumulation\Gram Negative Permeation - OmpF

> <s_m_Source_File>
data_maestro.csv

> <i_m_Source_File_Index>
23

> <s_m_job_name>
glide-dock_Nicaido_neutral

> <s_i_glide_gridfile>
3POX-grid

> <i_i_glide_lignum>
30

> <i_i_glide_rotatable_bonds>
6

> <r_i_docking_score>
-4.1743335825776

> <r_i_glide_ligand_efficiency>
-0.154604947502874

> <r_i_glide_ligand_efficiency_sa>
-0.463814841999069

> <r_i_glide_ligand_efficiency_ln>
-0.971716038756438

> <r_i_glide_gscore>
-4.1743335825776

> <r_i_glide_lipo>
0

> <r_i_glide_hbond>
-0.732383042251545

> <r_i_glide_metal>
0

> <r_i_glide_rewards>
-0.59447174093494

> <r_i_glide_evdw>
-21.2701511383057

> <r_i_glide_ecoul>
-10.3301792144775

> <r_i_glide_erotb>
0.347763984117939

> <r_i_glide_esite>
-0.582208344422136

> <r_i_glide_emodel>
-49.660650320423

> <r_i_glide_energy>
-31.6003303527832

> <r_i_glide_einternal>
9.13466358184814

> <i_i_glide_confnum>
18

> <i_i_glide_posenum>
256

> <r_i_glide_eff_state_penalty>
0

> <r_glide_res:A132_vdw>
-1.34395602212264

> <r_glide_res:A132_coul>
-50.743846389189

> <r_glide_res:A132_hbond>
-0.0172442915973756

> <r_glide_res:A132_dist>
2.41615250354777

> <r_glide_res:A132_Eint>
-52.1050467029091

> <r_glide_res:A117_vdw>
-3.99447584242364

> <r_glide_res:A117_coul>
44.5768481203069

> <r_glide_res:A117_hbond>
0

> <r_glide_res:A117_dist>
2.36595314075285

> <r_glide_res:A117_Eint>
40.5823722778833

> <r_glide_res:A113_vdw>
-1.84059586021126

> <r_glide_res:A113_coul>
38.7160931733255

> <r_glide_res:A113_hbond>
0

> <r_glide_res:A113_dist>
2.40804049730234

> <r_glide_res:A113_Eint>
36.8754973131143

> <r_glide_res:A82_vdw>
-1.14194226043253

> <r_glide_res:A82_coul>
-60.6373556663316

> <r_glide_res:A82_hbond>
-0.16

> <r_glide_res:A82_dist>
1.89039485591935

> <r_glide_res:A82_Eint>
-61.9392979267641

> <r_glide_res:A42_vdw>
-0.986460593830666

> <r_glide_res:A42_coul>
-66.0614003670008

> <r_glide_res:A42_hbond>
-0.155138750654169

> <r_glide_res:A42_dist>
1.88442499836787

> <r_glide_res:A42_Eint>
-67.2029997114856

> <r_glide_res:A16_vdw>
0.0544901794037189

> <r_glide_res:A16_coul>
-67.3518336479889

> <r_glide_res:A16_hbond>
-0.2

> <r_glide_res:A16_dist>
2.07678281131876

> <r_glide_res:A16_Eint>
-67.4973434685851

> <s_m_source_file>
ligprep_Nicaido_neutral.maegz

> <i_m_source_file_index>
23

> <i_lp_mmshare_version>
58128

> <i_f3d_flags>
0

> <s_lp_Force_Field>
S-OPLS

> <r_lp_Energy>
22.166908

> <b_lp_Chiralities_Consistent>
1

> <s_lp_Variant>
Sulbenicillin-1

> <s_epik_input>
W09IXUMoPU8pW0NAQEhdMUMoW0NIM10pKFtDSDNdKVNbQ0BIXShOMTIpW0NASF0oQzI9TylbTkhdQyg9TylbQ0BASF0oUyg9TykoPU8pW09IXSljM1tjSF1bY0hdW2NIXVtjSF1bY0hdMw==

> <s_epik_cmdline>
J2VwaWtfcHl0aG9uJywgJy1waHQnLCAnMC4wJywgJy1waCcsICc3LjQnLCAnLW50JywgJy1tYScsICc1MDAnLCAnLWltYWUnLCAnPGluZmlsZS5tYWU+JywgJy1vbWFlJywgJzxvdXRmaWxlLm1hZT4n

> <r_lp_tautomer_probability>
1

> <r_epik_Ionization_Penalty>
  0.0000

> <r_epik_Ionization_Penalty_Charging>
  0.0000

> <r_epik_Ionization_Penalty_Neutral>
  0.0000

> <r_epik_State_Penalty>
  0.0000

> <r_epik_Charging_Adjusted_Penalty>
1.13251598244902e-05

> <i_epik_Tot_Q>
-2

> <i_epik_Tot_abs_Q>
2

> <s_epik_Chemistry_Notes>
This compound contains an acetal/aminal-like group ( X-CH(R)-Y where X, Y are N, S, or O) that may be acid/base labile, releasing an aldehyde.

> <s_m_subgroup_title>
glide-dock_Nicaido_neutral_pv1

> <s_m_subgroupid>
glide-dock_Nicaido_neutral_pv1

> <b_m_subgroup_collapsed>
0

$$$$
Nalidixic acid
                    3D
 Schrodinger Suite 2022-2.
 28 29  0  0  1  0            999 V2000
  -36.7382  -22.6271  -27.8122 C   0  0  0  0  0  0
  -35.4056  -21.9740  -28.2043 C   0  0  0  0  0  0
  -34.2890  -22.9210  -28.1569 N   0  0  0  0  0  0
  -33.4638  -23.0086  -27.0417 C   0  0  0  0  0  0
  -32.4264  -23.8611  -26.9071 C   0  0  0  0  0  0
  -32.1267  -24.7784  -28.0364 C   0  0  0  0  0  0
  -33.0042  -24.6821  -29.2379 C   0  0  0  0  0  0
  -34.0876  -23.7693  -29.2689 C   0  0  0  0  0  0
  -34.9155  -23.6744  -30.3365 N   0  0  0  0  0  0
  -34.6917  -24.4550  -31.4128 C   0  0  0  0  0  0
  -33.6157  -25.3549  -31.4890 C   0  0  0  0  0  0
  -32.7673  -25.4839  -30.3753 C   0  0  0  0  0  0
  -35.6826  -24.3454  -32.5524 C   0  0  0  0  0  0
  -31.1690  -25.5518  -28.0135 O   0  0  0  0  0  0
  -31.5689  -23.8750  -25.6054 C   0  0  0  0  0  0
  -31.9222  -24.6797  -24.7172 O   0  5  0  0  0  0
  -30.5442  -23.1495  -25.6134 O   0  0  0  0  0  0
  -37.5459  -21.8954  -27.8290 H   0  0  0  0  0  0
  -37.0071  -23.4316  -28.4972 H   0  0  0  0  0  0
  -36.6880  -23.0460  -26.8067 H   0  0  0  0  0  0
  -35.1999  -21.1484  -27.5224 H   0  0  0  0  0  0
  -35.4846  -21.5189  -29.1929 H   0  0  0  0  0  0
  -33.7268  -22.3259  -26.2457 H   0  0  0  0  0  0
  -33.4642  -25.9491  -32.3778 H   0  0  0  0  0  0
  -31.9472  -26.1868  -30.4051 H   0  0  0  0  0  0
  -35.1694  -24.3498  -33.5137 H   0  0  0  0  0  0
  -36.3702  -25.1912  -32.5346 H   0  0  0  0  0  0
  -36.2692  -23.4287  -32.4823 H   0  0  0  0  0  0
  1  2  1  0  0  0
  1 18  1  0  0  0
  1 19  1  0  0  0
  1 20  1  0  0  0
  2  3  1  0  0  0
  2 21  1  0  0  0
  2 22  1  0  0  0
  3  8  1  0  0  0
  3  4  1  0  0  0
  4  5  2  0  0  0
  4 23  1  0  0  0
  5  6  1  0  0  0
  5 15  1  0  0  0
  6  7  1  0  0  0
  6 14  2  0  0  0
  7 12  2  0  0  0
  7  8  1  0  0  0
  8  9  2  0  0  0
  9 10  1  0  0  0
 10 11  2  0  0  0
 10 13  1  0  0  0
 11 12  1  0  0  0
 11 24  1  0  0  0
 12 25  1  0  0  0
 13 26  1  0  0  0
 13 27  1  0  0  0
 13 28  1  0  0  0
 15 16  1  0  0  0
 15 17  2  0  0  0
M  CHG  1  16  -1
M  END
> <s_m_entry_id>
27680

> <s_m_entry_name>
data_maestro.31

> <s_m_Source_Path>
C:\Users\olshana1\Git\GramNeg-Accumulation\Gram Negative Permeation - OmpF

> <s_m_Source_File>
data_maestro.csv

> <i_m_Source_File_Index>
31

> <s_m_job_name>
glide-dock_Nicaido_neutral

> <s_i_glide_gridfile>
3POX-grid

> <i_i_glide_lignum>
40

> <i_i_glide_rotatable_bonds>
2

> <r_i_docking_score>
-4.16843989944166

> <r_i_glide_ligand_efficiency>
-0.24520234702598

> <r_i_glide_ligand_efficiency_sa>
-0.630484280298663

> <r_i_glide_ligand_efficiency_ln>
-1.08745314317171

> <r_i_glide_gscore>
-4.16843989944166

> <r_i_glide_lipo>
-0.598164985266566

> <r_i_glide_hbond>
-0.334103906517456

> <r_i_glide_metal>
0

> <r_i_glide_rewards>
-1.83254086363636

> <r_i_glide_evdw>
-18.1308307647705

> <r_i_glide_ecoul>
-2.55674743652344

> <r_i_glide_erotb>
0

> <r_i_glide_esite>
-0.113576490304238

> <r_i_glide_emodel>
-31.2562904213891

> <r_i_glide_energy>
-20.6875782012939

> <r_i_glide_einternal>
4.2100625038147

> <i_i_glide_confnum>
1

> <i_i_glide_posenum>
252

> <r_i_glide_eff_state_penalty>
0

> <r_glide_res:A132_vdw>
-0.145617704969643

> <r_glide_res:A132_coul>
-24.1356568711922

> <r_glide_res:A132_hbond>
0

> <r_glide_res:A132_dist>
5.47872849407712

> <r_glide_res:A132_Eint>
-24.2812745761618

> <r_glide_res:A117_vdw>
-0.0629486983050505

> <r_glide_res:A117_coul>
19.5304295150399

> <r_glide_res:A117_hbond>
0

> <r_glide_res:A117_dist>
7.67779966152623

> <r_glide_res:A117_Eint>
19.4674808167349

> <r_glide_res:A113_vdw>
-0.0812679227673503

> <r_glide_res:A113_coul>
22.5652685798057

> <r_glide_res:A113_hbond>
0

> <r_glide_res:A113_dist>
7.12809749949129

> <r_glide_res:A113_Eint>
22.4840006570383

> <r_glide_res:A82_vdw>
-1.31045542116004

> <r_glide_res:A82_coul>
-38.9536024359233

> <r_glide_res:A82_hbond>
0

> <r_glide_res:A82_dist>
2.86575735161242

> <r_glide_res:A82_Eint>
-40.2640578570833

> <r_glide_res:A42_vdw>
-0.897400488322695

> <r_glide_res:A42_coul>
-46.3252205976868

> <r_glide_res:A42_hbond>
-0.334103906517456

> <r_glide_res:A42_dist>
1.88827134779447

> <r_glide_res:A42_Eint>
-47.5567249925269

> <r_glide_res:A16_vdw>
-5.22186247850729

> <r_glide_res:A16_coul>
-36.8287451384026

> <r_glide_res:A16_hbond>
0

> <r_glide_res:A16_dist>
2.766597429103

> <r_glide_res:A16_Eint>
-42.0506076169099

> <s_m_source_file>
ligprep_Nicaido_neutral.maegz

> <i_m_source_file_index>
31

> <i_lp_mmshare_version>
58128

> <i_f3d_flags>
0

> <s_lp_Force_Field>
S-OPLS

> <r_lp_Energy>
25.048869

> <b_lp_Chiralities_Consistent>
1

> <s_lp_Variant>
Nalidixic acid-1

> <s_epik_input>
Tz1jMWMoQyg9TylbT0hdKVtjSF1uKFtDSDJdW0NIM10pYyhjMTIpbmMoW0NIM10pW2NIXVtjSF0y

> <s_epik_cmdline>
J2VwaWtfcHl0aG9uJywgJy1waHQnLCAnMC4wJywgJy1waCcsICc3LjQnLCAnLW50JywgJy1tYScsICc1MDAnLCAnLWltYWUnLCAnPGluZmlsZS5tYWU+JywgJy1vbWFlJywgJzxvdXRmaWxlLm1hZT4n

> <r_lp_tautomer_probability>
1

> <r_epik_Ionization_Penalty>
  0.0215

> <r_epik_Ionization_Penalty_Charging>
  0.0215

> <r_epik_Ionization_Penalty_Neutral>
  0.0000

> <r_epik_State_Penalty>
  0.0000

> <r_epik_Charging_Adjusted_Penalty>
0.0214516940307923

> <i_epik_Tot_Q>
-1

> <i_epik_Tot_abs_Q>
1

> <s_m_subgroup_title>
glide-dock_Nicaido_neutral_pv1

> <s_m_subgroupid>
glide-dock_Nicaido_neutral_pv1

> <b_m_subgroup_collapsed>
0

$$$$
Ampicillin
                    3D
 Schrodinger Suite 2022-2.
 42 44  0  0  1  0            999 V2000
  -28.7411  -19.0105  -25.2629 C   0  0  0  0  0  0
  -30.0899  -19.3310  -24.5815 C   0  0  0  0  0  0
  -30.3393  -20.8583  -24.3198 C   0  0  2  0  0  0
  -29.7968  -21.0811  -22.9944 N   0  0  0  0  0  0
  -29.8061  -20.0848  -21.9365 C   0  0  2  0  0  0
  -30.0409  -18.5649  -22.9137 S   0  0  0  0  0  0
  -28.4487  -20.6476  -21.5033 C   0  0  2  0  0  0
  -28.8021  -21.8362  -22.4233 C   0  0  0  0  0  0
  -28.3654  -22.9440  -22.6666 O   0  0  0  0  0  0
  -28.3655  -20.9876  -20.0872 N   0  0  0  0  0  0
  -27.3219  -21.6662  -19.5919 C   0  0  0  0  0  0
  -27.2870  -21.8728  -18.0623 C   0  0  2  0  0  0
  -25.9220  -22.4134  -17.7365 C   0  0  0  0  0  0
  -25.5420  -23.7504  -18.0136 C   0  0  0  0  0  0
  -24.2427  -24.2211  -17.7379 C   0  0  0  0  0  0
  -23.2903  -23.3644  -17.1576 C   0  0  0  0  0  0
  -23.6488  -22.0392  -16.8540 C   0  0  0  0  0  0
  -24.9463  -21.5758  -17.1478 C   0  0  0  0  0  0
  -28.3680  -22.7492  -17.6141 N   0  0  0  0  0  0
  -26.4367  -22.1104  -20.3287 O   0  0  0  0  0  0
  -29.8272  -21.8406  -25.3967 C   0  0  0  0  0  0
  -30.6854  -22.5030  -26.0165 O   0  5  0  0  0  0
  -28.5979  -21.9480  -25.6133 O   0  0  0  0  0  0
  -31.2381  -18.7170  -25.4004 C   0  0  0  0  0  0
  -28.7146  -19.3618  -26.2949 H   0  0  0  0  0  0
  -28.5587  -17.9395  -25.2902 H   0  0  0  0  0  0
  -27.9054  -19.4597  -24.7240 H   0  0  0  0  0  0
  -31.4118  -21.0269  -24.2139 H   0  0  0  0  0  0
  -30.6134  -20.2276  -21.2133 H   0  0  0  0  0  0
  -27.6196  -20.0317  -21.8572 H   0  0  0  0  0  0
  -29.0892  -20.6351  -19.4664 H   0  0  0  0  0  0
  -27.4353  -20.8893  -17.6116 H   0  0  0  0  0  0
  -26.2599  -24.4237  -18.4575 H   0  0  0  0  0  0
  -23.9796  -25.2408  -17.9701 H   0  0  0  0  0  0
  -22.2932  -23.7189  -16.9383 H   0  0  0  0  0  0
  -22.9320  -21.3737  -16.3952 H   0  0  0  0  0  0
  -25.2007  -20.5520  -16.9166 H   0  0  0  0  0  0
  -29.2767  -22.5191  -18.0120 H   0  0  0  0  0  0
  -28.1742  -23.7273  -17.7624 H   0  0  0  0  0  0
  -31.3111  -19.1806  -26.3834 H   0  0  0  0  0  0
  -32.1953  -18.8462  -24.8951 H   0  0  0  0  0  0
  -31.0885  -17.6449  -25.5454 H   0  0  0  0  0  0
  1  2  1  0  0  0
  1 25  1  0  0  0
  1 26  1  0  0  0
  1 27  1  0  0  0
  2  6  1  0  0  0
  2  3  1  0  0  0
  2 24  1  0  0  0
  3  4  1  0  0  0
  3 21  1  0  0  0
  3 28  1  0  0  0
  4  8  1  0  0  0
  4  5  1  0  0  0
  5  6  1  0  0  0
  5  7  1  0  0  0
  5 29  1  0  0  0
  7  8  1  0  0  0
  7 10  1  0  0  0
  7 30  1  0  0  0
  8  9  2  0  0  0
 10 11  1  0  0  0
 10 31  1  0  0  0
 11 12  1  0  0  0
 11 20  2  0  0  0
 12 13  1  0  0  0
 12 19  1  0  0  0
 12 32  1  0  0  0
 13 18  1  0  0  0
 13 14  2  0  0  0
 14 15  1  0  0  0
 14 33  1  0  0  0
 15 16  2  0  0  0
 15 34  1  0  0  0
 16 17  1  0  0  0
 16 35  1  0  0  0
 17 18  2  0  0  0
 17 36  1  0  0  0
 18 37  1  0  0  0
 19 38  1  0  0  0
 19 39  1  0  0  0
 21 22  1  0  0  0
 21 23  2  0  0  0
 24 40  1  0  0  0
 24 41  1  0  0  0
 24 42  1  0  0  0
M  CHG  1  22  -1
M  END
> <s_m_entry_id>
27681

> <s_m_entry_name>
data_maestro.18

> <s_m_Source_Path>
C:\Users\olshana1\Git\GramNeg-Accumulation\Gram Negative Permeation - OmpF

> <s_m_Source_File>
data_maestro.csv

> <i_m_Source_File_Index>
18

> <s_m_job_name>
glide-dock_Nicaido_neutral

> <s_i_glide_gridfile>
3POX-grid

> <i_i_glide_lignum>
23

> <i_i_glide_rotatable_bonds>
5

> <r_i_docking_score>
-4.16676049359346

> <r_i_glide_ligand_efficiency>
-0.173615020566394

> <r_i_glide_ligand_efficiency_sa>
-0.500792377091073

> <r_i_glide_ligand_efficiency_ln>
-0.997296986297196

> <r_i_glide_gscore>
-4.27266049359346

> <r_i_glide_lipo>
0

> <r_i_glide_hbond>
-0.77171917170233

> <r_i_glide_metal>
0

> <r_i_glide_rewards>
-1.03334287947316

> <r_i_glide_evdw>
-29.2912979125977

> <r_i_glide_ecoul>
-7.21926641464233

> <r_i_glide_erotb>
0.470487855572594

> <r_i_glide_esite>
-0.390631440164332

> <r_i_glide_emodel>
-54.6467073695586

> <r_i_glide_energy>
-36.51056432724

> <r_i_glide_einternal>
3.5063157081604

> <i_i_glide_confnum>
2

> <i_i_glide_posenum>
108

> <r_i_glide_eff_state_penalty>
0.1059

> <r_glide_res:A132_vdw>
-1.41716110697001

> <r_glide_res:A132_coul>
-25.1853837150055

> <r_glide_res:A132_hbond>
0

> <r_glide_res:A132_dist>
2.79237132247405

> <r_glide_res:A132_Eint>
-26.6025448219755

> <r_glide_res:A117_vdw>
-3.52607741239775

> <r_glide_res:A117_coul>
24.7053823452361

> <r_glide_res:A117_hbond>
0

> <r_glide_res:A117_dist>
2.20832806515429

> <r_glide_res:A117_Eint>
21.1793049328383

> <r_glide_res:A113_vdw>
-3.26322682908691

> <r_glide_res:A113_coul>
6.61150985031234

> <r_glide_res:A113_hbond>
-0.300001284352139

> <r_glide_res:A113_dist>
2.04188319197036

> <r_glide_res:A113_Eint>
3.04828173687328

> <r_glide_res:A82_vdw>
-1.37965580829341

> <r_glide_res:A82_coul>
-36.7076159152415

> <r_glide_res:A82_hbond>
0

> <r_glide_res:A82_dist>
2.77656649657496

> <r_glide_res:A82_Eint>
-38.087271723535

> <r_glide_res:A42_vdw>
-0.141831769356407

> <r_glide_res:A42_coul>
-54.3176010047045

> <r_glide_res:A42_hbond>
-0.471717887350191

> <r_glide_res:A42_dist>
2.06310364615689

> <r_glide_res:A42_Eint>
-54.9311506614111

> <r_glide_res:A16_vdw>
-1.44927075682851

> <r_glide_res:A16_coul>
-41.9258098153518

> <r_glide_res:A16_hbond>
0

> <r_glide_res:A16_dist>
2.52562105983512

> <r_glide_res:A16_Eint>
-43.3750805721803

> <s_m_source_file>
ligprep_Nicaido_neutral.maegz

> <i_m_source_file_index>
18

> <i_lp_mmshare_version>
58128

> <i_f3d_flags>
0

> <s_lp_Force_Field>
S-OPLS

> <r_lp_Energy>
33.736216

> <b_lp_Chiralities_Consistent>
1

> <s_lp_Variant>
Ampicillin-1

> <s_epik_input>
W09IXUMoPU8pW0NAQEhdMUMoW0NIM10pKFtDSDNdKVNbQ0BASF0oTjEyKVtDQEhdKEMyPU8pW05IXUMoPU8pW0NAQEhdKFtOSDJdKWMzW2NIXVtjSF1bY0hdW2NIXVtjSF0z

> <s_epik_cmdline>
J2VwaWtfcHl0aG9uJywgJy1waHQnLCAnMC4wJywgJy1waCcsICc3LjQnLCAnLW50JywgJy1tYScsICc1MDAnLCAnLWltYWUnLCAnPGluZmlsZS5tYWU+JywgJy1vbWFlJywgJzxvdXRmaWxlLm1hZT4n

> <r_epik_Ionization_Penalty>
  0.1060

> <r_epik_Ionization_Penalty_Charging>
  0.0000

> <r_epik_Ionization_Penalty_Neutral>
  0.1059

> <r_epik_State_Penalty>
  0.1059

> <r_epik_Charging_Adjusted_Penalty>
0.105949346496876

> <i_epik_Tot_Q>
-1

> <i_epik_Tot_abs_Q>
1

> <s_epik_Chemistry_Notes>
This compound contains an acetal/aminal-like group ( X-CH(R)-Y where X, Y are N, S, or O) that may be acid/base labile, releasing an aldehyde.

> <s_m_subgroup_title>
glide-dock_Nicaido_neutral_pv1

> <s_m_subgroupid>
glide-dock_Nicaido_neutral_pv1

> <b_m_subgroup_collapsed>
0

$$$$
Nalidixic acid
                    3D
 Schrodinger Suite 2022-2.
 28 29  0  0  1  0            999 V2000
  -36.1426  -29.3374  -27.9678 C   0  0  0  0  0  0
  -36.2882  -27.8697  -27.5483 C   0  0  0  0  0  0
  -35.3624  -27.0046  -28.2773 N   0  0  0  0  0  0
  -34.1031  -26.7258  -27.7642 C   0  0  0  0  0  0
  -33.1493  -25.9828  -28.3668 C   0  0  0  0  0  0
  -33.4718  -25.4195  -29.7126 C   0  0  0  0  0  0
  -34.8316  -25.7024  -30.2590 C   0  0  0  0  0  0
  -35.7491  -26.5099  -29.5407 C   0  0  0  0  0  0
  -36.9722  -26.8306  -30.0330 N   0  0  0  0  0  0
  -37.3275  -26.3495  -31.2428 C   0  0  0  0  0  0
  -36.4977  -25.5139  -32.0120 C   0  0  0  0  0  0
  -35.2246  -25.1891  -31.5141 C   0  0  0  0  0  0
  -38.6828  -26.7818  -31.7597 C   0  0  0  0  0  0
  -32.6685  -24.7494  -30.3625 O   0  0  0  0  0  0
  -31.7449  -25.8133  -27.6771 C   0  0  0  0  0  0
  -31.6912  -25.9496  -26.4337 O   0  5  0  0  0  0
  -30.7689  -25.5496  -28.4134 O   0  0  0  0  0  0
  -36.7983  -29.9796  -27.3836 H   0  0  0  0  0  0
  -36.3697  -29.4794  -29.0249 H   0  0  0  0  0  0
  -35.1208  -29.6763  -27.7997 H   0  0  0  0  0  0
  -36.0832  -27.7810  -26.4808 H   0  0  0  0  0  0
  -37.3179  -27.5336  -27.6715 H   0  0  0  0  0  0
  -33.9131  -27.1960  -26.8089 H   0  0  0  0  0  0
  -36.8143  -25.1496  -32.9787 H   0  0  0  0  0  0
  -34.5629  -24.5684  -32.1016 H   0  0  0  0  0  0
  -38.9385  -26.2562  -32.6804 H   0  0  0  0  0  0
  -38.6806  -27.8519  -31.9706 H   0  0  0  0  0  0
  -39.4575  -26.5746  -31.0215 H   0  0  0  0  0  0
  1  2  1  0  0  0
  1 18  1  0  0  0
  1 19  1  0  0  0
  1 20  1  0  0  0
  2  3  1  0  0  0
  2 21  1  0  0  0
  2 22  1  0  0  0
  3  8  1  0  0  0
  3  4  1  0  0  0
  4  5  2  0  0  0
  4 23  1  0  0  0
  5  6  1  0  0  0
  5 15  1  0  0  0
  6  7  1  0  0  0
  6 14  2  0  0  0
  7 12  2  0  0  0
  7  8  1  0  0  0
  8  9  2  0  0  0
  9 10  1  0  0  0
 10 11  2  0  0  0
 10 13  1  0  0  0
 11 12  1  0  0  0
 11 24  1  0  0  0
 12 25  1  0  0  0
 13 26  1  0  0  0
 13 27  1  0  0  0
 13 28  1  0  0  0
 15 16  1  0  0  0
 15 17  2  0  0  0
M  CHG  1  16  -1
M  END
> <s_m_entry_id>
27682

> <s_m_entry_name>
data_maestro.31

> <s_m_Source_Path>
C:\Users\olshana1\Git\GramNeg-Accumulation\Gram Negative Permeation - OmpF

> <s_m_Source_File>
data_maestro.csv

> <i_m_Source_File_Index>
31

> <s_m_job_name>
glide-dock_Nicaido_neutral

> <s_i_glide_gridfile>
3POX-grid

> <i_i_glide_lignum>
40

> <i_i_glide_rotatable_bonds>
2

> <r_i_docking_score>
-4.1474388085935

> <r_i_glide_ligand_efficiency>
-0.243966988740794

> <r_i_glide_ligand_efficiency_sa>
-0.627307826285097

> <r_i_glide_ligand_efficiency_ln>
-1.08197442624072

> <r_i_glide_gscore>
-4.1474388085935

> <r_i_glide_lipo>
-0.265131647036565

> <r_i_glide_hbond>
-0.2

> <r_i_glide_metal>
0

> <r_i_glide_rewards>
-2.02040579647762

> <r_i_glide_evdw>
-20.3453674316406

> <r_i_glide_ecoul>
-3.65176844596863

> <r_i_glide_erotb>
0

> <r_i_glide_esite>
-0.0968677266019893

> <r_i_glide_emodel>
-36.1632987038809

> <r_i_glide_energy>
-23.9971358776093

> <r_i_glide_einternal>
0.887457668781281

> <i_i_glide_confnum>
1

> <i_i_glide_posenum>
237

> <r_i_glide_eff_state_penalty>
0

> <r_glide_res:A132_vdw>
-0.0842049316382624

> <r_glide_res:A132_coul>
-20.475913481242

> <r_glide_res:A132_hbond>
0

> <r_glide_res:A132_dist>
6.29137567729839

> <r_glide_res:A132_Eint>
-20.5601184128802

> <r_glide_res:A117_vdw>
-0.0181799660392293

> <r_glide_res:A117_coul>
16.4399343800787

> <r_glide_res:A117_hbond>
0

> <r_glide_res:A117_dist>
10.3573603754878

> <r_glide_res:A117_Eint>
16.4217544140395

> <r_glide_res:A113_vdw>
-0.0213309677401071

> <r_glide_res:A113_coul>
16.7740833100215

> <r_glide_res:A113_hbond>
0

> <r_glide_res:A113_dist>
9.1909852832199

> <r_glide_res:A113_Eint>
16.7527523422814

> <r_glide_res:A82_vdw>
-1.1472275129894

> <r_glide_res:A82_coul>
-36.4906953510403

> <r_glide_res:A82_hbond>
0

> <r_glide_res:A82_dist>
2.64405749741914

> <r_glide_res:A82_Eint>
-37.6379228640297

> <r_glide_res:A42_vdw>
0.749029313469917

> <r_glide_res:A42_coul>
-48.651808430667

> <r_glide_res:A42_hbond>
-0.2

> <r_glide_res:A42_dist>
1.69952333883704

> <r_glide_res:A42_Eint>
-48.1027791171971

> <r_glide_res:A16_vdw>
-2.82791870925305

> <r_glide_res:A16_coul>
-35.3252674072995

> <r_glide_res:A16_hbond>
0

> <r_glide_res:A16_dist>
2.69760950676468

> <r_glide_res:A16_Eint>
-38.1531861165526

> <s_m_source_file>
ligprep_Nicaido_neutral.maegz

> <i_m_source_file_index>
31

> <i_lp_mmshare_version>
58128

> <i_f3d_flags>
0

> <s_lp_Force_Field>
S-OPLS

> <r_lp_Energy>
25.048869

> <b_lp_Chiralities_Consistent>
1

> <s_lp_Variant>
Nalidixic acid-1

> <s_epik_input>
Tz1jMWMoQyg9TylbT0hdKVtjSF1uKFtDSDJdW0NIM10pYyhjMTIpbmMoW0NIM10pW2NIXVtjSF0y

> <s_epik_cmdline>
J2VwaWtfcHl0aG9uJywgJy1waHQnLCAnMC4wJywgJy1waCcsICc3LjQnLCAnLW50JywgJy1tYScsICc1MDAnLCAnLWltYWUnLCAnPGluZmlsZS5tYWU+JywgJy1vbWFlJywgJzxvdXRmaWxlLm1hZT4n

> <r_lp_tautomer_probability>
1

> <r_epik_Ionization_Penalty>
  0.0215

> <r_epik_Ionization_Penalty_Charging>
  0.0215

> <r_epik_Ionization_Penalty_Neutral>
  0.0000

> <r_epik_State_Penalty>
  0.0000

> <r_epik_Charging_Adjusted_Penalty>
0.0214516940307923

> <i_epik_Tot_Q>
-1

> <i_epik_Tot_abs_Q>
1

> <s_m_subgroup_title>
glide-dock_Nicaido_neutral_pv1

> <s_m_subgroupid>
glide-dock_Nicaido_neutral_pv1

> <b_m_subgroup_collapsed>
0

$$$$
Penicillin N
                    3D
 Schrodinger Suite 2022-2.
 44 45  0  0  1  0            999 V2000
  -21.3348  -21.9850  -18.7116 C   0  0  0  0  0  0
  -20.5132  -23.2837  -18.6030 C   0  0  0  0  0  0
  -19.4697  -23.1086  -17.4798 C   0  0  0  0  0  0
  -21.4842  -24.5016  -18.4120 C   0  0  2  0  0  0
  -20.9552  -25.6875  -17.5828 C   0  0  0  0  0  0
  -19.9831  -26.3495  -18.0205 O   0  5  0  0  0  0
  -21.5688  -25.9496  -16.5230 O   0  0  0  0  0  0
  -21.7143  -24.9459  -19.7660 N   0  0  0  0  0  0
  -20.6847  -24.9533  -20.7851 C   0  0  1  0  0  0
  -21.8039  -24.9081  -21.8339 C   0  0  2  0  0  0
  -21.7696  -23.6793  -22.6237 N   0  0  0  0  0  0
  -22.3200  -23.5493  -23.8381 C   0  0  0  0  0  0
  -22.0951  -22.2249  -24.5774 C   0  0  0  0  0  0
  -23.3834  -21.6210  -25.1726 C   0  0  0  0  0  0
  -24.1326  -20.6762  -24.2100 C   0  0  0  0  0  0
  -25.5761  -20.3557  -24.6762 C   0  0  2  0  0  0
  -26.1073  -19.1496  -24.0136 N   0  3  0  0  0  0
  -26.5654  -21.5254  -24.4670 C   0  0  0  0  0  0
  -27.5683  -21.5488  -25.2134 O   0  5  0  0  0  0
  -26.3098  -22.4218  -23.6328 O   0  0  0  0  0  0
  -22.9312  -24.4685  -24.3854 O   0  0  0  0  0  0
  -22.7674  -24.8690  -20.6401 C   0  0  0  0  0  0
  -23.9613  -24.7481  -20.4674 O   0  0  0  0  0  0
  -19.6632  -23.5523  -20.2142 S   0  0  0  0  0  0
  -21.8651  -21.7728  -17.7826 H   0  0  0  0  0  0
  -20.6953  -21.1290  -18.9298 H   0  0  0  0  0  0
  -22.0772  -22.0454  -19.5079 H   0  0  0  0  0  0
  -19.9473  -23.0184  -16.5033 H   0  0  0  0  0  0
  -18.7719  -23.9454  -17.4382 H   0  0  0  0  0  0
  -18.8725  -22.2088  -17.6374 H   0  0  0  0  0  0
  -22.4273  -24.1745  -17.9682 H   0  0  0  0  0  0
  -20.1087  -25.8802  -20.8031 H   0  0  0  0  0  0
  -21.8472  -25.8290  -22.4147 H   0  0  0  0  0  0
  -21.2857  -22.8895  -22.2187 H   0  0  0  0  0  0
  -21.4003  -22.4392  -25.3906 H   0  0  0  0  0  0
  -21.5943  -21.4980  -23.9360 H   0  0  0  0  0  0
  -24.0440  -22.4196  -25.5109 H   0  0  0  0  0  0
  -23.1280  -21.0620  -26.0742 H   0  0  0  0  0  0
  -23.5606  -19.7495  -24.1350 H   0  0  0  0  0  0
  -24.1379  -21.0922  -23.2009 H   0  0  0  0  0  0
  -25.5472  -20.1229  -25.7424 H   0  0  0  0  0  0
  -27.0541  -18.9929  -24.3262 H   0  0  0  0  0  0
  -26.1090  -19.2755  -23.0124 H   0  0  0  0  0  0
  -25.5445  -18.3430  -24.2606 H   0  0  0  0  0  0
  1  2  1  0  0  0
  1 25  1  0  0  0
  1 26  1  0  0  0
  1 27  1  0  0  0
  2 24  1  0  0  0
  2  3  1  0  0  0
  2  4  1  0  0  0
  3 28  1  0  0  0
  3 29  1  0  0  0
  3 30  1  0  0  0
  4  5  1  0  0  0
  4  8  1  0  0  0
  4 31  1  0  0  0
  5  6  1  0  0  0
  5  7  2  0  0  0
  8 22  1  0  0  0
  8  9  1  0  0  0
  9 10  1  0  0  0
  9 24  1  0  0  0
  9 32  1  0  0  0
 10 11  1  0  0  0
 10 22  1  0  0  0
 10 33  1  0  0  0
 11 12  1  0  0  0
 11 34  1  0  0  0
 12 13  1  0  0  0
 12 21  2  0  0  0
 13 14  1  0  0  0
 13 35  1  0  0  0
 13 36  1  0  0  0
 14 15  1  0  0  0
 14 37  1  0  0  0
 14 38  1  0  0  0
 15 16  1  0  0  0
 15 39  1  0  0  0
 15 40  1  0  0  0
 16 17  1  0  0  0
 16 18  1  0  0  0
 16 41  1  0  0  0
 17 42  1  0  0  0
 17 43  1  0  0  0
 17 44  1  0  0  0
 18 19  1  0  0  0
 18 20  2  0  0  0
 22 23  2  0  0  0
M  CHG  3   6  -1  17   1  19  -1
M  END
> <s_m_entry_id>
27683

> <s_m_entry_name>
data_maestro.26

> <s_m_Source_Path>
C:\Users\olshana1\Git\GramNeg-Accumulation\Gram Negative Permeation - OmpF

> <s_m_Source_File>
data_maestro.csv

> <i_m_Source_File_Index>
26

> <s_m_job_name>
glide-dock_Nicaido_neutral

> <s_i_glide_gridfile>
3POX-grid

> <i_i_glide_lignum>
33

> <i_i_glide_rotatable_bonds>
8

> <r_i_docking_score>
-4.14710730603315

> <r_i_glide_ligand_efficiency>
-0.172796137751381

> <r_i_glide_ligand_efficiency_sa>
-0.498430310317406

> <r_i_glide_ligand_efficiency_ln>
-0.992593076688

> <r_i_glide_gscore>
-4.14710730603315

> <r_i_glide_lipo>
0

> <r_i_glide_hbond>
-0.936308351060097

> <r_i_glide_metal>
0

> <r_i_glide_rewards>
-0.965513841381841

> <r_i_glide_evdw>
-12.3629026412964

> <r_i_glide_ecoul>
-14.09743309021

> <r_i_glide_erotb>
0.894795809723686

> <r_i_glide_esite>
-0.407320827718584

> <r_i_glide_emodel>
-49.4777704877037

> <r_i_glide_energy>
-26.4603357315063

> <r_i_glide_einternal>
3.33801198005676

> <i_i_glide_confnum>
138

> <i_i_glide_posenum>
397

> <r_i_glide_eff_state_penalty>
0

> <r_glide_res:A132_vdw>
-0.581266103458556

> <r_glide_res:A132_coul>
-33.3865433660602

> <r_glide_res:A132_hbond>
-0.0379791199243491

> <r_glide_res:A132_dist>
2.26132940776935

> <r_glide_res:A132_Eint>
-34.0057885894431

> <r_glide_res:A117_vdw>
-1.44824169202202

> <r_glide_res:A117_coul>
-14.9290988637802

> <r_glide_res:A117_hbond>
-0.2

> <r_glide_res:A117_dist>
2.08751446539999

> <r_glide_res:A117_Eint>
-16.5773405558022

> <r_glide_res:A113_vdw>
-0.112980901148191

> <r_glide_res:A113_coul>
16.278102581518

> <r_glide_res:A113_hbond>
0

> <r_glide_res:A113_dist>
6.4932536081274

> <r_glide_res:A113_Eint>
16.1651216803698

> <r_glide_res:A82_vdw>
-1.23464535017713

> <r_glide_res:A82_coul>
-33.2038335950985

> <r_glide_res:A82_hbond>
0

> <r_glide_res:A82_dist>
2.97309481207989

> <r_glide_res:A82_Eint>
-34.4384789452757

> <r_glide_res:A42_vdw>
0.500079647846075

> <r_glide_res:A42_coul>
-36.3296517283946

> <r_glide_res:A42_hbond>
-0.2

> <r_glide_res:A42_dist>
1.87929930189386

> <r_glide_res:A42_Eint>
-36.0295720805485

> <r_glide_res:A16_vdw>
-0.215973228902971

> <r_glide_res:A16_coul>
-16.6512282169455

> <r_glide_res:A16_hbond>
0

> <r_glide_res:A16_dist>
4.00229011434631

> <r_glide_res:A16_Eint>
-16.8672014458485

> <s_m_source_file>
ligprep_Nicaido_neutral.maegz

> <i_m_source_file_index>
26

> <i_lp_mmshare_version>
58128

> <i_f3d_flags>
0

> <s_lp_Force_Field>
S-OPLS

> <r_lp_Energy>
12.253328

> <b_lp_Chiralities_Consistent>
1

> <s_lp_Variant>
Penicillin N-1

> <s_epik_input>
W09IXUMoPU8pW0NASF0xQyhbQ0gzXSkoW0NIM10pU1tDQEBIXShOMTIpW0NAQEhdKEMyPU8pW05IXUMoPU8pW0NIMl1bQ0gyXVtDSDJdW0NASF0oW05IMl0pQyg9TylbT0hd

> <s_epik_cmdline>
J2VwaWtfcHl0aG9uJywgJy1waHQnLCAnMC4wJywgJy1waCcsICc3LjQnLCAnLW50JywgJy1tYScsICc1MDAnLCAnLWltYWUnLCAnPGluZmlsZS5tYWU+JywgJy1vbWFlJywgJzxvdXRmaWxlLm1hZT4n

> <r_lp_tautomer_probability>
1

> <r_epik_Ionization_Penalty>
  0.0034

> <r_epik_Ionization_Penalty_Charging>
  0.0034

> <r_epik_Ionization_Penalty_Neutral>
  0.0000

> <r_epik_State_Penalty>
  0.0000

> <r_epik_Charging_Adjusted_Penalty>
0.0034368723547391

> <i_epik_Tot_Q>
-1

> <i_epik_Tot_abs_Q>
3

> <s_epik_Chemistry_Notes>
This compound contains an acetal/aminal-like group ( X-CH(R)-Y where X, Y are N, S, or O) that may be acid/base labile, releasing an aldehyde.

> <s_m_subgroup_title>
glide-dock_Nicaido_neutral_pv1

> <s_m_subgroupid>
glide-dock_Nicaido_neutral_pv1

> <b_m_subgroup_collapsed>
0

$$$$
Cephaloglycin
                    3D
 Schrodinger Suite 2022-2.
 46 48  0  0  1  0            999 V2000
  -32.8220  -17.1668  -25.7443 C   0  0  0  0  0  0
  -31.7840  -17.9417  -26.5444 C   0  0  0  0  0  0
  -30.7285  -18.3003  -25.8022 O   0  0  0  0  0  0
  -29.6604  -19.0001  -26.4130 C   0  0  0  0  0  0
  -28.7695  -19.6647  -25.3768 C   0  0  0  0  0  0
  -29.0183  -20.8867  -24.8319 C   0  0  0  0  0  0
  -28.2030  -21.4239  -23.8241 N   0  0  0  0  0  0
  -27.3597  -20.5833  -23.0014 C   0  0  1  0  0  0
  -26.9084  -21.8583  -22.2755 C   0  0  2  0  0  0
  -28.0241  -22.5716  -23.0754 C   0  0  0  0  0  0
  -28.5310  -23.6737  -23.1071 O   0  0  0  0  0  0
  -27.1694  -21.7446  -20.8502 N   0  0  0  0  0  0
  -27.2968  -22.7554  -19.9842 C   0  0  0  0  0  0
  -27.5744  -22.3334  -18.5371 C   0  0  2  0  0  0
  -26.2094  -22.0932  -17.9764 C   0  0  0  0  0  0
  -25.3412  -23.1497  -17.6130 C   0  0  0  0  0  0
  -24.0583  -22.9045  -17.0855 C   0  0  0  0  0  0
  -23.6083  -21.5832  -16.9191 C   0  0  0  0  0  0
  -24.4441  -20.5157  -17.2896 C   0  0  0  0  0  0
  -25.7252  -20.7745  -17.8128 C   0  0  0  0  0  0
  -28.3688  -23.3258  -17.8221 N   0  0  0  0  0  0
  -27.1972  -23.9493  -20.2989 O   0  0  0  0  0  0
  -26.2623  -19.6768  -24.1125 S   0  0  0  0  0  0
  -27.5692  -18.7990  -25.0082 C   0  0  0  0  0  0
  -30.2660  -21.7480  -25.2082 C   0  0  0  0  0  0
  -30.9933  -22.1344  -24.2710 O   0  5  0  0  0  0
  -30.3665  -22.0539  -26.4134 O   0  0  0  0  0  0
  -31.9470  -18.1994  -27.7398 O   0  0  0  0  0  0
  -33.6625  -16.8844  -26.3777 H   0  0  0  0  0  0
  -33.1943  -17.7753  -24.9201 H   0  0  0  0  0  0
  -32.3815  -16.2597  -25.3302 H   0  0  0  0  0  0
  -29.0748  -18.3054  -27.0168 H   0  0  0  0  0  0
  -30.0412  -19.7491  -27.1029 H   0  0  0  0  0  0
  -27.9621  -19.9030  -22.3932 H   0  0  0  0  0  0
  -25.8885  -22.1535  -22.5248 H   0  0  0  0  0  0
  -27.2877  -20.8090  -20.4860 H   0  0  0  0  0  0
  -28.1514  -21.4055  -18.5420 H   0  0  0  0  0  0
  -25.6802  -24.1698  -17.7165 H   0  0  0  0  0  0
  -23.4254  -23.7306  -16.8007 H   0  0  0  0  0  0
  -22.6292  -21.3871  -16.5074 H   0  0  0  0  0  0
  -24.1110  -19.4955  -17.1643 H   0  0  0  0  0  0
  -26.3591  -19.9425  -18.0794 H   0  0  0  0  0  0
  -29.2846  -22.9345  -17.6130 H   0  0  0  0  0  0
  -28.5619  -24.1119  -18.4217 H   0  0  0  0  0  0
  -27.1248  -18.3866  -25.9118 H   0  0  0  0  0  0
  -27.9157  -17.9528  -24.4149 H   0  0  0  0  0  0
  1  2  1  0  0  0
  1 29  1  0  0  0
  1 30  1  0  0  0
  1 31  1  0  0  0
  2  3  1  0  0  0
  2 28  2  0  0  0
  3  4  1  0  0  0
  4  5  1  0  0  0
  4 32  1  0  0  0
  4 33  1  0  0  0
  5 24  1  0  0  0
  5  6  2  0  0  0
  6  7  1  0  0  0
  6 25  1  0  0  0
  7 10  1  0  0  0
  7  8  1  0  0  0
  8  9  1  0  0  0
  8 23  1  0  0  0
  8 34  1  0  0  0
  9 10  1  0  0  0
  9 12  1  0  0  0
  9 35  1  0  0  0
 10 11  2  0  0  0
 12 13  1  0  0  0
 12 36  1  0  0  0
 13 14  1  0  0  0
 13 22  2  0  0  0
 14 15  1  0  0  0
 14 21  1  0  0  0
 14 37  1  0  0  0
 15 20  1  0  0  0
 15 16  2  0  0  0
 16 17  1  0  0  0
 16 38  1  0  0  0
 17 18  2  0  0  0
 17 39  1  0  0  0
 18 19  1  0  0  0
 18 40  1  0  0  0
 19 20  2  0  0  0
 19 41  1  0  0  0
 20 42  1  0  0  0
 21 43  1  0  0  0
 21 44  1  0  0  0
 23 24  1  0  0  0
 24 45  1  0  0  0
 24 46  1  0  0  0
 25 26  1  0  0  0
 25 27  2  0  0  0
M  CHG  1  26  -1
M  END
> <s_m_entry_id>
27684

> <s_m_entry_name>
data_maestro.16

> <s_m_Source_Path>
C:\Users\olshana1\Git\GramNeg-Accumulation\Gram Negative Permeation - OmpF

> <s_m_Source_File>
data_maestro.csv

> <i_m_Source_File_Index>
16

> <s_m_job_name>
glide-dock_Nicaido_neutral

> <s_i_glide_gridfile>
3POX-grid

> <i_i_glide_lignum>
21

> <i_i_glide_rotatable_bonds>
8

> <r_i_docking_score>
-4.14607214170871

> <r_i_glide_ligand_efficiency>
-0.148074005061025

> <r_i_glide_ligand_efficiency_sa>
-0.44963989029034

> <r_i_glide_ligand_efficiency_ln>
-0.957035184274122

> <r_i_glide_gscore>
-4.25747214170871

> <r_i_glide_lipo>
0

> <r_i_glide_hbond>
-0.834812805679582

> <r_i_glide_metal>
0

> <r_i_glide_rewards>
-0.651684511334477

> <r_i_glide_evdw>
-31.2946968078613

> <r_i_glide_ecoul>
-9.02532005310059

> <r_i_glide_erotb>
0.600502745111863

> <r_i_glide_esite>
-0.452944721448358

> <r_i_glide_emodel>
-62.7447567142995

> <r_i_glide_energy>
-40.3200168609619

> <r_i_glide_einternal>
1.63887369632721

> <i_i_glide_confnum>
53

> <i_i_glide_posenum>
378

> <r_i_glide_eff_state_penalty>
0.1114

> <r_glide_res:A132_vdw>
-1.54421032711937

> <r_glide_res:A132_coul>
-31.7303560540251

> <r_glide_res:A132_hbond>
-0.246247720214903

> <r_glide_res:A132_dist>
2.04125478606125

> <r_glide_res:A132_Eint>
-33.5208141013593

> <r_glide_res:A117_vdw>
-3.75851462213952

> <r_glide_res:A117_coul>
18.5661515815629

> <r_glide_res:A117_hbond>
0

> <r_glide_res:A117_dist>
2.14081672420213

> <r_glide_res:A117_Eint>
14.8076369594234

> <r_glide_res:A113_vdw>
-2.12664215003684

> <r_glide_res:A113_coul>
15.9227793593769

> <r_glide_res:A113_hbond>
-0.104744798296168

> <r_glide_res:A113_dist>
2.23813800425958

> <r_glide_res:A113_Eint>
13.6913924110439

> <r_glide_res:A82_vdw>
-1.3556728693192

> <r_glide_res:A82_coul>
-38.0145506989468

> <r_glide_res:A82_hbond>
-0.186078132345345

> <r_glide_res:A82_dist>
2.1466702994177

> <r_glide_res:A82_Eint>
-39.5563017006113

> <r_glide_res:A42_vdw>
-2.04545852833075

> <r_glide_res:A42_coul>
-40.0657881077751

> <r_glide_res:A42_hbond>
-0.122195921795214

> <r_glide_res:A42_dist>
2.16756735797606

> <r_glide_res:A42_Eint>
-42.2334425579011

> <r_glide_res:A16_vdw>
-0.696683579429249

> <r_glide_res:A16_coul>
-46.6285829660608

> <r_glide_res:A16_hbond>
-0.175546233027952

> <r_glide_res:A16_dist>
1.75779811392609

> <r_glide_res:A16_Eint>
-47.500812778518

> <s_m_source_file>
ligprep_Nicaido_neutral.maegz

> <i_m_source_file_index>
16

> <i_lp_mmshare_version>
58128

> <i_f3d_flags>
0

> <s_lp_Force_Field>
S-OPLS

> <r_lp_Energy>
48.658328

> <b_lp_Chiralities_Consistent>
1

> <s_lp_Variant>
Cephaloglycin-1

> <s_epik_input>
W0NIM11DKD1PKU9bQ0gyXUMoPUMxQyg9TylbT0hdKVtDSDJdU1tDQEBIXShOMTIpW0NASF0oQzI9TylbTkhdQyg9TylbQ0BASF0oW05IMl0pYzNbY0hdW2NIXVtjSF1bY0hdW2NIXTM=

> <s_epik_cmdline>
J2VwaWtfcHl0aG9uJywgJy1waHQnLCAnMC4wJywgJy1waCcsICc3LjQnLCAnLW50JywgJy1tYScsICc1MDAnLCAnLWltYWUnLCAnPGluZmlsZS5tYWU+JywgJy1vbWFlJywgJzxvdXRmaWxlLm1hZT4n

> <r_epik_Ionization_Penalty>
  0.1114

> <r_epik_Ionization_Penalty_Charging>
  0.0000

> <r_epik_Ionization_Penalty_Neutral>
  0.1114

> <r_epik_State_Penalty>
  0.1114

> <r_epik_Charging_Adjusted_Penalty>
0.111378695294398

> <i_epik_Tot_Q>
-1

> <i_epik_Tot_abs_Q>
1

> <s_epik_Chemistry_Notes>
This compound has an ester and may undergo hydrolysis at high or low pH. This compound contains an acetal/aminal-like group ( X-CH(R)-Y where X, Y are N, S, or O) that may be acid/base labile, releasing an aldehyde.

> <s_m_subgroup_title>
glide-dock_Nicaido_neutral_pv1

> <s_m_subgroupid>
glide-dock_Nicaido_neutral_pv1

> <b_m_subgroup_collapsed>
0

$$$$
Cefotaxime
                    3D
 Schrodinger Suite 2022-2.
 46 48  0  0  1  0            999 V2000
  -30.2909  -17.5495  -26.7133 C   0  0  0  0  0  0
  -29.7484  -18.7754  -25.9938 C   0  0  0  0  0  0
  -29.0404  -18.4525  -24.9030 O   0  0  0  0  0  0
  -28.3975  -19.4507  -24.1200 C   0  0  0  0  0  0
  -29.3687  -20.2632  -23.2637 C   0  0  0  0  0  0
  -29.3784  -21.6175  -23.1752 C   0  0  0  0  0  0
  -30.2602  -22.1923  -22.2522 N   0  0  0  0  0  0
  -31.6809  -21.8949  -22.3903 C   0  0  1  0  0  0
  -31.8846  -22.8407  -21.1904 C   0  0  2  0  0  0
  -30.4656  -23.3501  -21.5246 C   0  0  0  0  0  0
  -29.8053  -24.3495  -21.3421 O   0  0  0  0  0  0
  -32.9531  -23.8390  -21.3366 N   0  0  0  0  0  0
  -33.1687  -24.7176  -22.3392 C   0  0  0  0  0  0
  -34.3708  -25.6472  -22.1113 C   0  0  0  0  0  0
  -35.4093  -25.1466  -21.1630 C   0  0  0  0  0  0
  -35.9434  -23.8766  -21.2409 C   0  0  0  0  0  0
  -37.1020  -23.5668  -19.9764 S   0  0  0  0  0  0
  -36.8708  -25.2144  -19.4221 C   0  0  0  0  0  0
  -37.5614  -25.7199  -18.3365 N   0  0  0  0  0  0
  -35.9861  -25.9075  -20.1378 N   0  0  0  0  0  0
  -34.5452  -26.7992  -22.6417 N   0  0  0  0  0  0
  -33.4938  -27.2390  -23.4640 O   0  0  0  0  0  0
  -33.9306  -28.3929  -24.1591 C   0  0  0  0  0  0
  -32.4664  -24.7778  -23.3512 O   0  0  0  0  0  0
  -31.9740  -20.0829  -22.2839 S   0  0  0  0  0  0
  -30.2731  -19.4327  -22.3539 C   0  0  0  0  0  0
  -28.4368  -22.5801  -23.9867 C   0  0  0  0  0  0
  -27.9117  -23.5454  -23.3807 O   0  5  0  0  0  0
  -28.3459  -22.3496  -25.2133 O   0  0  0  0  0  0
  -29.9691  -19.9127  -26.4133 O   0  0  0  0  0  0
  -29.5195  -16.7818  -26.7929 H   0  0  0  0  0  0
  -30.6252  -17.8060  -27.7176 H   0  0  0  0  0  0
  -31.1331  -17.1351  -26.1598 H   0  0  0  0  0  0
  -27.7079  -18.9453  -23.4448 H   0  0  0  0  0  0
  -27.7792  -20.0742  -24.7623 H   0  0  0  0  0  0
  -32.0598  -22.2749  -23.3407 H   0  0  0  0  0  0
  -31.9689  -22.2762  -20.2674 H   0  0  0  0  0  0
  -33.5694  -23.9051  -20.5366 H   0  0  0  0  0  0
  -35.7078  -23.0910  -21.9445 H   0  0  0  0  0  0
  -37.3133  -26.6182  -17.9498 H   0  0  0  0  0  0
  -38.1063  -25.1079  -17.7471 H   0  0  0  0  0  0
  -33.1337  -28.7505  -24.8113 H   0  0  0  0  0  0
  -34.1905  -29.1988  -23.4716 H   0  0  0  0  0  0
  -34.7963  -28.1727  -24.7852 H   0  0  0  0  0  0
  -29.8501  -19.4317  -21.3483 H   0  0  0  0  0  0
  -30.3178  -18.3917  -22.6742 H   0  0  0  0  0  0
  1  2  1  0  0  0
  1 31  1  0  0  0
  1 32  1  0  0  0
  1 33  1  0  0  0
  2  3  1  0  0  0
  2 30  2  0  0  0
  3  4  1  0  0  0
  4  5  1  0  0  0
  4 34  1  0  0  0
  4 35  1  0  0  0
  5 26  1  0  0  0
  5  6  2  0  0  0
  6  7  1  0  0  0
  6 27  1  0  0  0
  7 10  1  0  0  0
  7  8  1  0  0  0
  8  9  1  0  0  0
  8 25  1  0  0  0
  8 36  1  0  0  0
  9 10  1  0  0  0
  9 12  1  0  0  0
  9 37  1  0  0  0
 10 11  2  0  0  0
 12 13  1  0  0  0
 12 38  1  0  0  0
 13 14  1  0  0  0
 13 24  2  0  0  0
 14 15  1  0  0  0
 14 21  2  3  0  0
 15 20  1  0  0  0
 15 16  2  0  0  0
 16 17  1  0  0  0
 16 39  1  0  0  0
 17 18  1  0  0  0
 18 19  1  0  0  0
 18 20  2  0  0  0
 19 40  1  0  0  0
 19 41  1  0  0  0
 21 22  1  0  0  0
 22 23  1  0  0  0
 23 42  1  0  0  0
 23 43  1  0  0  0
 23 44  1  0  0  0
 25 26  1  0  0  0
 26 45  1  0  0  0
 26 46  1  0  0  0
 27 28  1  0  0  0
 27 29  2  0  0  0
M  CHG  1  28  -1
M  END
> <s_m_entry_id>
27685

> <s_m_entry_name>
data_maestro.6

> <s_m_Source_Path>
C:\Users\olshana1\Git\GramNeg-Accumulation\Gram Negative Permeation - OmpF

> <s_m_Source_File>
data_maestro.csv

> <i_m_Source_File_Index>
6

> <s_m_job_name>
glide-dock_Nicaido_neutral

> <s_i_glide_gridfile>
3POX-grid

> <i_i_glide_lignum>
8

> <i_i_glide_rotatable_bonds>
9

> <r_i_docking_score>
-4.14346106453793

> <r_i_glide_ligand_efficiency>
-0.138115368817931

> <r_i_glide_ligand_efficiency_sa>
-0.429156563076332

> <r_i_glide_ligand_efficiency_ln>
-0.941439500487276

> <r_i_glide_gscore>
-4.14346106453793

> <r_i_glide_lipo>
0

> <r_i_glide_hbond>
-0.74071466194927

> <r_i_glide_metal>
0

> <r_i_glide_rewards>
-0.307377225985886

> <r_i_glide_evdw>
-28.2680397033691

> <r_i_glide_ecoul>
-12.5336503982544

> <r_i_glide_erotb>
0.680611118548691

> <r_i_glide_esite>
-0.482530750244843

> <r_i_glide_emodel>
-58.7846821475885

> <r_i_glide_energy>
-40.8016901016235

> <r_i_glide_einternal>
7.13968992233276

> <i_i_glide_confnum>
69

> <i_i_glide_posenum>
125

> <r_i_glide_eff_state_penalty>
0

> <r_glide_res:A132_vdw>
-0.680195495151912

> <r_glide_res:A132_coul>
-36.5254538927624

> <r_glide_res:A132_hbond>
-0.0385780692712056

> <r_glide_res:A132_dist>
2.23833127415796

> <r_glide_res:A132_Eint>
-37.2442274571856

> <r_glide_res:A117_vdw>
-3.74992263971834

> <r_glide_res:A117_coul>
21.7898166139271

> <r_glide_res:A117_hbond>
0

> <r_glide_res:A117_dist>
2.40749594905766

> <r_glide_res:A117_Eint>
18.0398939742087

> <r_glide_res:A113_vdw>
-4.06509231205033

> <r_glide_res:A113_coul>
17.651213472026

> <r_glide_res:A113_hbond>
0

> <r_glide_res:A113_dist>
2.25726377201808

> <r_glide_res:A113_Eint>
13.5861211599757

> <r_glide_res:A82_vdw>
-1.16152612945915

> <r_glide_res:A82_coul>
-53.4585584386785

> <r_glide_res:A82_hbond>
-0.173420774109591

> <r_glide_res:A82_dist>
1.88026095631306

> <r_glide_res:A82_Eint>
-54.7935053422473

> <r_glide_res:A42_vdw>
0.260746094649549

> <r_glide_res:A42_coul>
-52.1591173531185

> <r_glide_res:A42_hbond>
-0.348155465449277

> <r_glide_res:A42_dist>
1.88757269974617

> <r_glide_res:A42_Eint>
-52.2465267239182

> <r_glide_res:A16_vdw>
-0.587294052135329

> <r_glide_res:A16_coul>
-36.7357184238095

> <r_glide_res:A16_hbond>
-0.0967803185743047

> <r_glide_res:A16_dist>
2.13858860483065

> <r_glide_res:A16_Eint>
-37.4197927945191

> <s_m_source_file>
ligprep_Nicaido_neutral.maegz

> <i_m_source_file_index>
6

> <i_lp_mmshare_version>
58128

> <i_f3d_flags>
0

> <s_lp_Force_Field>
S-OPLS

> <r_lp_Energy>
51.702138

> <b_lp_Chiralities_Consistent>
1

> <s_lp_Variant>
Cefotaxime-2

> <s_epik_input>
W0NIM11DKD1PKU9bQ0gyXUMoPUMxQyg9TylbT0hdKVtDSDJdU1tDQEBIXShOMTIpW0NASF0oQzI9TylbTkhdQyg9TykvQyg9Ti9PW0NIM10pYzNbY0hdc2MobjMpW05IMl0=

> <s_epik_cmdline>
J2VwaWtfcHl0aG9uJywgJy1waHQnLCAnMC4wJywgJy1waCcsICc3LjQnLCAnLW50JywgJy1tYScsICc1MDAnLCAnLWltYWUnLCAnPGluZmlsZS5tYWU+JywgJy1vbWFlJywgJzxvdXRmaWxlLm1hZT4n

> <r_lp_tautomer_probability>
1

> <r_epik_Ionization_Penalty>
  0.0004

> <r_epik_Ionization_Penalty_Charging>
  0.0000

> <r_epik_Ionization_Penalty_Neutral>
  0.0004

> <r_epik_State_Penalty>
  0.0000

> <r_epik_Charging_Adjusted_Penalty>
5.45682606121274e-06

> <i_epik_Tot_Q>
-1

> <i_epik_Tot_abs_Q>
1

> <s_epik_Chemistry_Notes>
This compound has an ester and may undergo hydrolysis at high or low pH. This compound has an imine and may undergo hydrolysis. This compound contains an acetal/aminal-like group ( X-CH(R)-Y where X, Y are N, S, or O) that may be acid/base labile, releasing an aldehyde.

> <s_m_subgroup_title>
glide-dock_Nicaido_neutral_pv1

> <s_m_subgroupid>
glide-dock_Nicaido_neutral_pv1

> <b_m_subgroup_collapsed>
0

$$$$
Ceftriaxone
                    3D
 Schrodinger Suite 2022-2.
 52 55  0  0  1  0            999 V2000
  -24.0984  -20.6602  -25.2417 C   0  0  0  0  0  0
  -24.3715  -21.9731  -24.6673 N   0  0  0  0  0  0
  -24.8222  -22.0992  -23.3224 C   0  0  0  0  0  0
  -25.7047  -20.6262  -22.6618 S   0  0  0  0  0  0
  -27.0747  -20.3609  -23.8340 C   0  0  0  0  0  0
  -28.4432  -20.4555  -23.1494 C   0  0  0  0  0  0
  -29.2049  -21.5814  -23.1343 C   0  0  0  0  0  0
  -30.4029  -21.6850  -22.4050 N   0  0  0  0  0  0
  -30.7395  -20.7917  -21.3131 C   0  0  2  0  0  0
  -32.0966  -21.5243  -21.2192 C   0  0  2  0  0  0
  -31.4905  -22.5248  -22.2375 C   0  0  0  0  0  0
  -31.7766  -23.5974  -22.7269 O   0  0  0  0  0  0
  -33.1761  -20.6910  -21.7415 N   0  0  0  0  0  0
  -34.4345  -21.0913  -21.9785 C   0  0  0  0  0  0
  -35.3625  -19.9901  -22.5229 C   0  0  0  0  0  0
  -34.7026  -18.8610  -23.2564 C   0  0  0  0  0  0
  -35.2757  -17.6064  -23.2888 C   0  0  0  0  0  0
  -34.3686  -16.4778  -24.2608 S   0  0  0  0  0  0
  -33.2019  -17.7525  -24.5705 C   0  0  0  0  0  0
  -32.0601  -17.5458  -25.3229 N   0  0  0  0  0  0
  -33.5282  -18.9222  -24.0247 N   0  0  0  0  0  0
  -36.6372  -19.9630  -22.4091 N   0  0  0  0  0  0
  -37.1893  -21.0176  -21.6685 O   0  0  0  0  0  0
  -38.5949  -20.8541  -21.6592 C   0  0  0  0  0  0
  -34.8076  -22.2493  -21.7828 O   0  0  0  0  0  0
  -30.5914  -19.0848  -21.9327 S   0  0  0  0  0  0
  -28.8628  -19.1572  -22.4619 C   0  0  0  0  0  0
  -28.7874  -22.8615  -23.9057 C   0  0  0  0  0  0
  -28.7689  -22.7495  -25.1560 O   0  5  0  0  0  0
  -28.5308  -23.8791  -23.2134 O   0  0  0  0  0  0
  -24.6094  -23.1472  -22.5761 N   0  0  0  0  0  0
  -23.9738  -24.2518  -23.1403 C   0  0  0  0  0  0
  -23.8082  -24.2835  -24.6896 C   0  0  0  0  0  0
  -23.5691  -25.3836  -25.1879 O   0  0  0  0  0  0
  -23.9690  -23.1346  -25.3903 N   0  5  0  0  0  0
  -23.5696  -25.2212  -22.4952 O   0  0  0  0  0  0
  -23.6565  -19.9840  -24.5090 H   0  0  0  0  0  0
  -23.3931  -20.7460  -26.0690 H   0  0  0  0  0  0
  -25.0057  -20.2033  -25.6349 H   0  0  0  0  0  0
  -26.9815  -21.0504  -24.6691 H   0  0  0  0  0  0
  -26.9619  -19.3685  -24.2721 H   0  0  0  0  0  0
  -30.0806  -20.9776  -20.4603 H   0  0  0  0  0  0
  -32.3099  -21.9473  -20.2397 H   0  0  0  0  0  0
  -32.9237  -19.7352  -21.9550 H   0  0  0  0  0  0
  -36.1820  -17.2770  -22.8014 H   0  0  0  0  0  0
  -31.2993  -18.1928  -25.1777 H   0  0  0  0  0  0
  -31.7470  -16.5898  -25.4397 H   0  0  0  0  0  0
  -39.0494  -21.6501  -21.0697 H   0  0  0  0  0  0
  -38.8830  -19.9017  -21.2131 H   0  0  0  0  0  0
  -39.0057  -20.9064  -22.6687 H   0  0  0  0  0  0
  -28.2073  -18.9523  -21.6151 H   0  0  0  0  0  0
  -28.7658  -18.3491  -23.1807 H   0  0  0  0  0  0
  1  2  1  0  0  0
  1 37  1  0  0  0
  1 38  1  0  0  0
  1 39  1  0  0  0
  2 35  1  0  0  0
  2  3  1  0  0  0
  3  4  1  0  0  0
  3 31  2  0  0  0
  4  5  1  0  0  0
  5  6  1  0  0  0
  5 40  1  0  0  0
  5 41  1  0  0  0
  6 27  1  0  0  0
  6  7  2  0  0  0
  7  8  1  0  0  0
  7 28  1  0  0  0
  8 11  1  0  0  0
  8  9  1  0  0  0
  9 10  1  0  0  0
  9 26  1  0  0  0
  9 42  1  0  0  0
 10 11  1  0  0  0
 10 13  1  0  0  0
 10 43  1  0  0  0
 11 12  2  0  0  0
 13 14  1  0  0  0
 13 44  1  0  0  0
 14 15  1  0  0  0
 14 25  2  0  0  0
 15 16  1  0  0  0
 15 22  2  3  0  0
 16 21  1  0  0  0
 16 17  2  0  0  0
 17 18  1  0  0  0
 17 45  1  0  0  0
 18 19  1  0  0  0
 19 20  1  0  0  0
 19 21  2  0  0  0
 20 46  1  0  0  0
 20 47  1  0  0  0
 22 23  1  0  0  0
 23 24  1  0  0  0
 24 48  1  0  0  0
 24 49  1  0  0  0
 24 50  1  0  0  0
 26 27  1  0  0  0
 27 51  1  0  0  0
 27 52  1  0  0  0
 28 29  1  0  0  0
 28 30  2  0  0  0
 31 32  1  0  0  0
 32 33  1  0  0  0
 32 36  2  0  0  0
 33 34  2  0  0  0
 33 35  1  0  0  0
M  CHG  2  29  -1  35  -1
M  END
> <s_m_entry_id>
27686

> <s_m_entry_name>
data_maestro.22

> <s_m_Source_Path>
C:\Users\olshana1\Git\GramNeg-Accumulation\Gram Negative Permeation - OmpF

> <s_m_Source_File>
data_maestro.csv

> <i_m_Source_File_Index>
22

> <s_m_job_name>
glide-dock_Nicaido_neutral

> <s_i_glide_gridfile>
3POX-grid

> <i_i_glide_lignum>
29

> <i_i_glide_rotatable_bonds>
9

> <r_i_docking_score>
-4.14237777699783

> <r_i_glide_ligand_efficiency>
-0.115066049361051

> <r_i_glide_ligand_efficiency_sa>
-0.379939723354068

> <r_i_glide_ligand_efficiency_ln>
-0.903754916826662

> <r_i_glide_gscore>
-4.14237777699783

> <r_i_glide_lipo>
-0.0599515458813442

> <r_i_glide_hbond>
-0.753945973702249

> <r_i_glide_metal>
0

> <r_i_glide_rewards>
5.20487038614339e-07

> <r_i_glide_evdw>
-35.9244499206543

> <r_i_glide_ecoul>
-10.03821849823

> <r_i_glide_erotb>
0.472124986767549

> <r_i_glide_esite>
-0.498650493901616

> <r_i_glide_emodel>
-70.0137491030704

> <r_i_glide_energy>
-45.9626684188843

> <r_i_glide_einternal>
10.9296922683716

> <i_i_glide_confnum>
118

> <i_i_glide_posenum>
256

> <r_i_glide_eff_state_penalty>
0

> <r_glide_res:A132_vdw>
-1.79780288140234

> <r_glide_res:A132_coul>
-58.0445484405262

> <r_glide_res:A132_hbond>
0

> <r_glide_res:A132_dist>
2.80911628234864

> <r_glide_res:A132_Eint>
-59.8423513219286

> <r_glide_res:A117_vdw>
-2.73722338100784

> <r_glide_res:A117_coul>
39.8389962824224

> <r_glide_res:A117_hbond>
0

> <r_glide_res:A117_dist>
2.27906055520108

> <r_glide_res:A117_Eint>
37.1017729014146

> <r_glide_res:A113_vdw>
-3.24395036235633

> <r_glide_res:A113_coul>
32.660504229401

> <r_glide_res:A113_hbond>
0

> <r_glide_res:A113_dist>
2.26054480655145

> <r_glide_res:A113_Eint>
29.4165538670447

> <r_glide_res:A82_vdw>
-1.35818701385883

> <r_glide_res:A82_coul>
-82.0551760537537

> <r_glide_res:A82_hbond>
-0.280363031993158

> <r_glide_res:A82_dist>
1.97341906409338

> <r_glide_res:A82_Eint>
-83.6937260996057

> <r_glide_res:A42_vdw>
1.68806978483903

> <r_glide_res:A42_coul>
-89.7186464933146

> <r_glide_res:A42_hbond>
-0.336649204159732

> <r_glide_res:A42_dist>
1.72430983205653

> <r_glide_res:A42_Eint>
-88.3672259126353

> <r_glide_res:A16_vdw>
-0.608985620230844

> <r_glide_res:A16_coul>
-49.9961785046326

> <r_glide_res:A16_hbond>
0

> <r_glide_res:A16_dist>
3.6917132770134

> <r_glide_res:A16_Eint>
-50.6051641248634

> <s_m_source_file>
ligprep_Nicaido_neutral.maegz

> <i_m_source_file_index>
22

> <i_lp_mmshare_version>
58128

> <i_f3d_flags>
0

> <s_lp_Force_Field>
S-OPLS

> <r_lp_Energy>
111.196812

> <b_lp_Chiralities_Consistent>
1

> <s_lp_Variant>
Ceftriaxone-2

> <s_epik_input>
W09IXWMobjEpYyg9TyluYyhuMVtDSDNdKVNbQ0gyXUMoPUMyQyg9TylbT0hdKVtDSDJdU1tDQEhdKE4yMylbQ0BIXShDMz1PKVtOSF1DKD1PKS9DKD1OL09bQ0gzXSljNFtjSF1zYyhuNClbTkgyXQ==

> <s_epik_cmdline>
J2VwaWtfcHl0aG9uJywgJy1waHQnLCAnMC4wJywgJy1waCcsICc3LjQnLCAnLW50JywgJy1tYScsICc1MDAnLCAnLWltYWUnLCAnPGluZmlsZS5tYWU+JywgJy1vbWFlJywgJzxvdXRmaWxlLm1hZT4n

> <r_lp_tautomer_probability>
1

> <r_epik_Ionization_Penalty>
  0.0014

> <r_epik_Ionization_Penalty_Charging>
  0.0010

> <r_epik_Ionization_Penalty_Neutral>
  0.0004

> <r_epik_State_Penalty>
  0.0000

> <r_epik_Charging_Adjusted_Penalty>
0.000994184415634904

> <i_epik_Tot_Q>
-2

> <i_epik_Tot_abs_Q>
2

> <s_epik_Chemistry_Notes>
This compound has an imine and may undergo hydrolysis. This compound contains an acetal/aminal-like group ( X-CH(R)-Y where X, Y are N, S, or O) that may be acid/base labile, releasing an aldehyde.

> <s_m_subgroup_title>
glide-dock_Nicaido_neutral_pv1

> <s_m_subgroupid>
glide-dock_Nicaido_neutral_pv1

> <b_m_subgroup_collapsed>
0

$$$$
Nalidixic acid
                    3D
 Schrodinger Suite 2022-2.
 28 29  0  0  1  0            999 V2000
  -26.8617  -21.8759  -18.2217 C   0  0  0  0  0  0
  -27.7318  -20.9578  -19.0879 C   0  0  0  0  0  0
  -27.2933  -20.9531  -20.4841 N   0  0  0  0  0  0
  -27.8755  -21.8120  -21.3998 C   0  0  0  0  0  0
  -27.5760  -21.8859  -22.7142 C   0  0  0  0  0  0
  -26.5526  -20.9359  -23.2440 C   0  0  0  0  0  0
  -25.9233  -20.0067  -22.2557 C   0  0  0  0  0  0
  -26.2924  -20.0440  -20.8870 C   0  0  0  0  0  0
  -25.6957  -19.2625  -19.9555 N   0  0  0  0  0  0
  -24.7447  -18.3914  -20.3461 C   0  0  0  0  0  0
  -24.3353  -18.2563  -21.6862 C   0  0  0  0  0  0
  -24.9374  -19.0792  -22.6575 C   0  0  0  0  0  0
  -24.1137  -17.5621  -19.2468 C   0  0  0  0  0  0
  -26.1991  -20.9443  -24.4253 O   0  0  0  0  0  0
  -28.3220  -22.9394  -23.6013 C   0  0  0  0  0  0
  -28.3689  -22.7496  -24.8366 O   0  5  0  0  0  0
  -28.7600  -23.9496  -23.0021 O   0  0  0  0  0  0
  -27.2651  -21.9374  -17.2135 H   0  0  0  0  0  0
  -26.8344  -22.8879  -18.6232 H   0  0  0  0  0  0
  -25.8390  -21.5054  -18.1533 H   0  0  0  0  0  0
  -27.7488  -19.9496  -18.6798 H   0  0  0  0  0  0
  -28.7690  -21.2961  -19.0414 H   0  0  0  0  0  0
  -28.6210  -22.4610  -20.9602 H   0  0  0  0  0  0
  -23.5787  -17.5405  -21.9743 H   0  0  0  0  0  0
  -24.6352  -18.9952  -23.6923 H   0  0  0  0  0  0
  -23.1567  -17.1510  -19.5673 H   0  0  0  0  0  0
  -24.7686  -16.7387  -18.9659 H   0  0  0  0  0  0
  -23.9380  -18.1713  -18.3596 H   0  0  0  0  0  0
  1  2  1  0  0  0
  1 18  1  0  0  0
  1 19  1  0  0  0
  1 20  1  0  0  0
  2  3  1  0  0  0
  2 21  1  0  0  0
  2 22  1  0  0  0
  3  8  1  0  0  0
  3  4  1  0  0  0
  4  5  2  0  0  0
  4 23  1  0  0  0
  5  6  1  0  0  0
  5 15  1  0  0  0
  6  7  1  0  0  0
  6 14  2  0  0  0
  7 12  2  0  0  0
  7  8  1  0  0  0
  8  9  2  0  0  0
  9 10  1  0  0  0
 10 11  2  0  0  0
 10 13  1  0  0  0
 11 12  1  0  0  0
 11 24  1  0  0  0
 12 25  1  0  0  0
 13 26  1  0  0  0
 13 27  1  0  0  0
 13 28  1  0  0  0
 15 16  1  0  0  0
 15 17  2  0  0  0
M  CHG  1  16  -1
M  END
> <s_m_entry_id>
27687

> <s_m_entry_name>
data_maestro.31

> <s_m_Source_Path>
C:\Users\olshana1\Git\GramNeg-Accumulation\Gram Negative Permeation - OmpF

> <s_m_Source_File>
data_maestro.csv

> <i_m_Source_File_Index>
31

> <s_m_job_name>
glide-dock_Nicaido_neutral

> <s_i_glide_gridfile>
3POX-grid

> <i_i_glide_lignum>
40

> <i_i_glide_rotatable_bonds>
2

> <r_i_docking_score>
-4.13357536093402

> <r_i_glide_ligand_efficiency>
-0.243151491819648

> <r_i_glide_ligand_efficiency_sa>
-0.625210954066496

> <r_i_glide_ligand_efficiency_ln>
-1.07835776147016

> <r_i_glide_gscore>
-4.13357536093402

> <r_i_glide_lipo>
-0.210107087571493

> <r_i_glide_hbond>
-0.625404498660217

> <r_i_glide_metal>
0

> <r_i_glide_rewards>
-1.83254086363636

> <r_i_glide_evdw>
-17.1962947845459

> <r_i_glide_ecoul>
-2.6916446685791

> <r_i_glide_erotb>
0

> <r_i_glide_esite>
-0.201961471551786

> <r_i_glide_emodel>
-32.1001495881386

> <r_i_glide_energy>
-19.887939453125

> <r_i_glide_einternal>
0.711062073707581

> <i_i_glide_confnum>
1

> <i_i_glide_posenum>
284

> <r_i_glide_eff_state_penalty>
0

> <r_glide_res:A132_vdw>
-1.02978306337643

> <r_glide_res:A132_coul>
-31.1774485484942

> <r_glide_res:A132_hbond>
0

> <r_glide_res:A132_dist>
3.09959555004856

> <r_glide_res:A132_Eint>
-32.2072316118706

> <r_glide_res:A117_vdw>
-3.37949349507364

> <r_glide_res:A117_coul>
25.0378394265706

> <r_glide_res:A117_hbond>
0

> <r_glide_res:A117_dist>
2.74342265631072

> <r_glide_res:A117_Eint>
21.6583459314969

> <r_glide_res:A113_vdw>
-1.67923175361425

> <r_glide_res:A113_coul>
23.8765785592777

> <r_glide_res:A113_hbond>
0

> <r_glide_res:A113_dist>
2.57744013898749

> <r_glide_res:A113_Eint>
22.1973468056634

> <r_glide_res:A82_vdw>
0.248804886945285

> <r_glide_res:A82_coul>
-47.1793287421749

> <r_glide_res:A82_hbond>
-0.296641881565243

> <r_glide_res:A82_dist>
1.94313965258277

> <r_glide_res:A82_Eint>
-47.2271657367949

> <r_glide_res:A42_vdw>
-0.325513225552784

> <r_glide_res:A42_coul>
-48.9093521546763

> <r_glide_res:A42_hbond>
-0.328762617094975

> <r_glide_res:A42_dist>
2.02843419351986

> <r_glide_res:A42_Eint>
-49.563627997324

> <r_glide_res:A16_vdw>
-0.206871179303713

> <r_glide_res:A16_coul>
-29.2533312118447

> <r_glide_res:A16_hbond>
0

> <r_glide_res:A16_dist>
4.12346013110498

> <r_glide_res:A16_Eint>
-29.4602023911484

> <s_m_source_file>
ligprep_Nicaido_neutral.maegz

> <i_m_source_file_index>
31

> <i_lp_mmshare_version>
58128

> <i_f3d_flags>
0

> <s_lp_Force_Field>
S-OPLS

> <r_lp_Energy>
25.048869

> <b_lp_Chiralities_Consistent>
1

> <s_lp_Variant>
Nalidixic acid-1

> <s_epik_input>
Tz1jMWMoQyg9TylbT0hdKVtjSF1uKFtDSDJdW0NIM10pYyhjMTIpbmMoW0NIM10pW2NIXVtjSF0y

> <s_epik_cmdline>
J2VwaWtfcHl0aG9uJywgJy1waHQnLCAnMC4wJywgJy1waCcsICc3LjQnLCAnLW50JywgJy1tYScsICc1MDAnLCAnLWltYWUnLCAnPGluZmlsZS5tYWU+JywgJy1vbWFlJywgJzxvdXRmaWxlLm1hZT4n

> <r_lp_tautomer_probability>
1

> <r_epik_Ionization_Penalty>
  0.0215

> <r_epik_Ionization_Penalty_Charging>
  0.0215

> <r_epik_Ionization_Penalty_Neutral>
  0.0000

> <r_epik_State_Penalty>
  0.0000

> <r_epik_Charging_Adjusted_Penalty>
0.0214516940307923

> <i_epik_Tot_Q>
-1

> <i_epik_Tot_abs_Q>
1

> <s_m_subgroup_title>
glide-dock_Nicaido_neutral_pv1

> <s_m_subgroupid>
glide-dock_Nicaido_neutral_pv1

> <b_m_subgroup_collapsed>
0

$$$$
Carbenicillin
                    3D
 Schrodinger Suite 2022-2.
 42 44  0  0  1  0            999 V2000
  -26.3544  -20.5454  -25.5731 C   0  0  0  0  0  0
  -27.1872  -19.9819  -24.3993 C   0  0  0  0  0  0
  -28.1649  -21.0183  -23.7475 C   0  0  2  0  0  0
  -27.3764  -21.5898  -22.6591 N   0  0  0  0  0  0
  -26.4627  -20.7833  -21.8742 C   0  0  2  0  0  0
  -25.9691  -19.5495  -23.0997 S   0  0  0  0  0  0
  -25.6640  -22.0523  -21.6004 C   0  0  2  0  0  0
  -26.8669  -22.7897  -22.2075 C   0  0  0  0  0  0
  -27.2119  -23.9495  -22.3192 O   0  0  0  0  0  0
  -25.4567  -22.3057  -20.1803 N   0  0  0  0  0  0
  -24.4948  -23.1194  -19.7223 C   0  0  0  0  0  0
  -24.3914  -23.2704  -18.1876 C   0  0  2  0  0  0
  -23.2849  -22.4134  -17.5571 C   0  0  0  0  0  0
  -23.5537  -21.7250  -16.3527 C   0  0  0  0  0  0
  -22.5553  -20.9458  -15.7361 C   0  0  0  0  0  0
  -21.2791  -20.8420  -16.3186 C   0  0  0  0  0  0
  -20.9991  -21.5244  -17.5168 C   0  0  0  0  0  0
  -21.9943  -22.3088  -18.1313 C   0  0  0  0  0  0
  -24.1820  -24.7693  -17.8891 C   0  0  0  0  0  0
  -25.0975  -25.5495  -18.2414 O   0  5  0  0  0  0
  -23.1360  -25.1495  -17.3082 O   0  0  0  0  0  0
  -23.7342  -23.7208  -20.4889 O   0  0  0  0  0  0
  -28.8126  -21.9887  -24.7559 C   0  0  0  0  0  0
  -28.3691  -23.1506  -24.8134 O   0  5  0  0  0  0
  -29.6803  -21.5557  -25.5470 O   0  0  0  0  0  0
  -27.9638  -18.7327  -24.8416 C   0  0  0  0  0  0
  -26.9720  -20.8548  -26.4134 H   0  0  0  0  0  0
  -25.6567  -19.7945  -25.9476 H   0  0  0  0  0  0
  -25.7663  -21.4077  -25.2585 H   0  0  0  0  0  0
  -28.9836  -20.4909  -23.2559 H   0  0  0  0  0  0
  -26.9354  -20.3270  -21.0012 H   0  0  0  0  0  0
  -24.7575  -22.0905  -22.2076 H   0  0  0  0  0  0
  -26.0573  -21.8315  -19.5201 H   0  0  0  0  0  0
  -25.3480  -22.9897  -17.7434 H   0  0  0  0  0  0
  -24.5274  -21.7977  -15.8882 H   0  0  0  0  0  0
  -22.7695  -20.4268  -14.8133 H   0  0  0  0  0  0
  -20.5176  -20.2395  -15.8460 H   0  0  0  0  0  0
  -20.0195  -21.4480  -17.9648 H   0  0  0  0  0  0
  -21.7549  -22.8372  -19.0416 H   0  0  0  0  0  0
  -28.6585  -18.9568  -25.6510 H   0  0  0  0  0  0
  -28.5410  -18.3164  -24.0158 H   0  0  0  0  0  0
  -27.2921  -17.9510  -25.1880 H   0  0  0  0  0  0
  1  2  1  0  0  0
  1 27  1  0  0  0
  1 28  1  0  0  0
  1 29  1  0  0  0
  2  6  1  0  0  0
  2  3  1  0  0  0
  2 26  1  0  0  0
  3  4  1  0  0  0
  3 23  1  0  0  0
  3 30  1  0  0  0
  4  8  1  0  0  0
  4  5  1  0  0  0
  5  6  1  0  0  0
  5  7  1  0  0  0
  5 31  1  0  0  0
  7  8  1  0  0  0
  7 10  1  0  0  0
  7 32  1  0  0  0
  8  9  2  0  0  0
 10 11  1  0  0  0
 10 33  1  0  0  0
 11 12  1  0  0  0
 11 22  2  0  0  0
 12 13  1  0  0  0
 12 19  1  0  0  0
 12 34  1  0  0  0
 13 18  1  0  0  0
 13 14  2  0  0  0
 14 15  1  0  0  0
 14 35  1  0  0  0
 15 16  2  0  0  0
 15 36  1  0  0  0
 16 17  1  0  0  0
 16 37  1  0  0  0
 17 18  2  0  0  0
 17 38  1  0  0  0
 18 39  1  0  0  0
 19 20  1  0  0  0
 19 21  2  0  0  0
 23 24  1  0  0  0
 23 25  2  0  0  0
 26 40  1  0  0  0
 26 41  1  0  0  0
 26 42  1  0  0  0
M  CHG  2  20  -1  24  -1
M  END
> <s_m_entry_id>
27688

> <s_m_entry_name>
data_maestro.24

> <s_m_Source_Path>
C:\Users\olshana1\Git\GramNeg-Accumulation\Gram Negative Permeation - OmpF

> <s_m_Source_File>
data_maestro.csv

> <i_m_Source_File_Index>
24

> <s_m_job_name>
glide-dock_Nicaido_neutral

> <s_i_glide_gridfile>
3POX-grid

> <i_i_glide_lignum>
31

> <i_i_glide_rotatable_bonds>
6

> <r_i_docking_score>
-4.13114633539951

> <r_i_glide_ligand_efficiency>
-0.158890243669212

> <r_i_glide_ligand_efficiency_sa>
-0.470711721667121

> <r_i_glide_ligand_efficiency_ln>
-0.970186161471821

> <r_i_glide_gscore>
-4.13114633539951

> <r_i_glide_lipo>
0

> <r_i_glide_hbond>
-0.750746428760564

> <r_i_glide_metal>
0

> <r_i_glide_rewards>
-0.842830782724618

> <r_i_glide_evdw>
-19.4200572967529

> <r_i_glide_ecoul>
-10.3934736251831

> <r_i_glide_erotb>
0.409918473255716

> <r_i_glide_esite>
-0.417463688554932

> <r_i_glide_emodel>
-52.607909451693

> <r_i_glide_energy>
-29.813530921936

> <r_i_glide_einternal>
1.5929502248764

> <i_i_glide_confnum>
1

> <i_i_glide_posenum>
328

> <r_i_glide_eff_state_penalty>
0

> <r_glide_res:A132_vdw>
-2.56712615560863

> <r_glide_res:A132_coul>
-62.3676015256074

> <r_glide_res:A132_hbond>
0

> <r_glide_res:A132_dist>
2.59132942366103

> <r_glide_res:A132_Eint>
-64.934727681216

> <r_glide_res:A117_vdw>
-2.73161748474123

> <r_glide_res:A117_coul>
39.5587568014523

> <r_glide_res:A117_hbond>
0

> <r_glide_res:A117_dist>
2.21428620116663

> <r_glide_res:A117_Eint>
36.8271393167111

> <r_glide_res:A113_vdw>
-0.58986069853774

> <r_glide_res:A113_coul>
38.7898505144613

> <r_glide_res:A113_hbond>
0

> <r_glide_res:A113_dist>
4.61642892045151

> <r_glide_res:A113_Eint>
38.1999898159235

> <r_glide_res:A82_vdw>
-1.24652930846285

> <r_glide_res:A82_coul>
-63.5862327172397

> <r_glide_res:A82_hbond>
-0.16

> <r_glide_res:A82_dist>
1.86580728945672

> <r_glide_res:A82_Eint>
-64.9927620257025

> <r_glide_res:A42_vdw>
0.83705575632022

> <r_glide_res:A42_coul>
-66.8139194480492

> <r_glide_res:A42_hbond>
-0.270746428760564

> <r_glide_res:A42_dist>
1.93973554512669

> <r_glide_res:A42_Eint>
-66.2476101204895

> <r_glide_res:A16_vdw>
-0.735995113994906

> <r_glide_res:A16_coul>
-49.8692532168806

> <r_glide_res:A16_hbond>
0

> <r_glide_res:A16_dist>
2.67378907311124

> <r_glide_res:A16_Eint>
-50.6052483308755

> <s_m_source_file>
ligprep_Nicaido_neutral.maegz

> <i_m_source_file_index>
24

> <i_lp_mmshare_version>
58128

> <i_f3d_flags>
0

> <s_lp_Force_Field>
S-OPLS

> <r_lp_Energy>
37.112724

> <b_lp_Chiralities_Consistent>
1

> <s_lp_Variant>
Carbenicillin-1

> <s_epik_input>
W09IXUMoPU8pW0NAQEhdMUMoW0NIM10pKFtDSDNdKVNbQ0BASF0oTjEyKVtDQEhdKEMyPU8pW05IXUMoPU8pW0NAQEhdKEMoPU8pW09IXSljM1tjSF1bY0hdW2NIXVtjSF1bY0hdMw==

> <s_epik_cmdline>
J2VwaWtfcHl0aG9uJywgJy1waHQnLCAnMC4wJywgJy1waCcsICc3LjQnLCAnLW50JywgJy1tYScsICc1MDAnLCAnLWltYWUnLCAnPGluZmlsZS5tYWU+JywgJy1vbWFlJywgJzxvdXRmaWxlLm1hZT4n

> <r_lp_tautomer_probability>
1

> <r_epik_Ionization_Penalty>
  0.0000

> <r_epik_Ionization_Penalty_Charging>
  0.0000

> <r_epik_Ionization_Penalty_Neutral>
  0.0000

> <r_epik_State_Penalty>
  0.0000

> <r_epik_Charging_Adjusted_Penalty>
4.98035685666923e-05

> <i_epik_Tot_Q>
-2

> <i_epik_Tot_abs_Q>
2

> <s_epik_Chemistry_Notes>
This compound contains an acetal/aminal-like group ( X-CH(R)-Y where X, Y are N, S, or O) that may be acid/base labile, releasing an aldehyde.

> <s_m_subgroup_title>
glide-dock_Nicaido_neutral_pv1

> <s_m_subgroupid>
glide-dock_Nicaido_neutral_pv1

> <b_m_subgroup_collapsed>
0

$$$$
Cephalothin
                    3D
 Schrodinger Suite 2022-2.
 41 43  0  0  1  0            999 V2000
  -34.5135  -20.8900  -21.6122 C   0  0  0  0  0  0
  -33.2343  -21.6427  -21.9484 C   0  0  0  0  0  0
  -32.4069  -21.7284  -20.8957 O   0  0  0  0  0  0
  -31.1375  -22.3659  -21.0089 C   0  0  0  0  0  0
  -30.0686  -21.5118  -21.7088 C   0  0  0  0  0  0
  -29.0372  -22.0016  -22.4477 C   0  0  0  0  0  0
  -28.1924  -21.0706  -23.0762 N   0  0  0  0  0  0
  -27.5107  -20.0522  -22.2868 C   0  0  1  0  0  0
  -27.0160  -19.4976  -23.6437 C   0  0  2  0  0  0
  -27.4007  -20.8866  -24.2006 C   0  0  0  0  0  0
  -27.1805  -21.5497  -25.1930 O   0  0  0  0  0  0
  -25.5876  -19.1494  -23.6979 N   0  0  0  0  0  0
  -24.5143  -19.8617  -23.3156 C   0  0  0  0  0  0
  -23.1679  -19.1356  -23.3742 C   0  0  0  0  0  0
  -22.7682  -18.5514  -22.0491 C   0  0  0  0  0  0
  -23.5601  -18.0140  -21.0609 C   0  0  0  0  0  0
  -22.8190  -17.5512  -19.9336 C   0  0  0  0  0  0
  -21.4681  -17.7149  -20.0830 C   0  0  0  0  0  0
  -21.0797  -18.4550  -21.6113 S   0  0  0  0  0  0
  -24.5646  -21.0263  -22.9198 O   0  0  0  0  0  0
  -28.7013  -19.1503  -21.2164 S   0  0  0  0  0  0
  -30.2586  -19.9995  -21.6001 C   0  0  0  0  0  0
  -28.6628  -23.5258  -22.5797 C   0  0  0  0  0  0
  -27.4682  -23.8193  -22.8133 O   0  5  0  0  0  0
  -29.5667  -24.3665  -22.4133 O   0  0  0  0  0  0
  -33.0255  -22.0906  -23.0770 O   0  0  0  0  0  0
  -34.2850  -19.8501  -21.3784 H   0  0  0  0  0  0
  -35.2097  -20.9155  -22.4505 H   0  0  0  0  0  0
  -34.9954  -21.3369  -20.7429 H   0  0  0  0  0  0
  -31.3175  -23.3063  -21.5192 H   0  0  0  0  0  0
  -30.7706  -22.6289  -20.0167 H   0  0  0  0  0  0
  -26.7365  -20.5112  -21.6693 H   0  0  0  0  0  0
  -27.6544  -18.6939  -24.0126 H   0  0  0  0  0  0
  -25.3895  -18.2260  -24.0759 H   0  0  0  0  0  0
  -23.2015  -18.3486  -24.1275 H   0  0  0  0  0  0
  -22.4103  -19.8437  -23.7118 H   0  0  0  0  0  0
  -24.6382  -17.9400  -21.1021 H   0  0  0  0  0  0
  -23.2966  -17.1115  -19.0698 H   0  0  0  0  0  0
  -20.6815  -17.4452  -19.3932 H   0  0  0  0  0  0
  -30.6643  -19.6201  -22.5379 H   0  0  0  0  0  0
  -30.9625  -19.7304  -20.8136 H   0  0  0  0  0  0
  1  2  1  0  0  0
  1 27  1  0  0  0
  1 28  1  0  0  0
  1 29  1  0  0  0
  2  3  1  0  0  0
  2 26  2  0  0  0
  3  4  1  0  0  0
  4  5  1  0  0  0
  4 30  1  0  0  0
  4 31  1  0  0  0
  5 22  1  0  0  0
  5  6  2  0  0  0
  6  7  1  0  0  0
  6 23  1  0  0  0
  7 10  1  0  0  0
  7  8  1  0  0  0
  8  9  1  0  0  0
  8 21  1  0  0  0
  8 32  1  0  0  0
  9 10  1  0  0  0
  9 12  1  0  0  0
  9 33  1  0  0  0
 10 11  2  0  0  0
 12 13  1  0  0  0
 12 34  1  0  0  0
 13 14  1  0  0  0
 13 20  2  0  0  0
 14 15  1  0  0  0
 14 35  1  0  0  0
 14 36  1  0  0  0
 15 19  1  0  0  0
 15 16  2  0  0  0
 16 17  1  0  0  0
 16 37  1  0  0  0
 17 18  2  0  0  0
 17 38  1  0  0  0
 18 19  1  0  0  0
 18 39  1  0  0  0
 21 22  1  0  0  0
 22 40  1  0  0  0
 22 41  1  0  0  0
 23 24  1  0  0  0
 23 25  2  0  0  0
M  CHG  1  24  -1
M  END
> <s_m_entry_id>
27689

> <s_m_entry_name>
data_maestro.33

> <s_m_Source_Path>
C:\Users\olshana1\Git\GramNeg-Accumulation\Gram Negative Permeation - OmpF

> <s_m_Source_File>
data_maestro.csv

> <i_m_Source_File_Index>
33

> <s_m_job_name>
glide-dock_Nicaido_neutral

> <s_i_glide_gridfile>
3POX-grid

> <i_i_glide_lignum>
42

> <i_i_glide_rotatable_bonds>
8

> <r_i_docking_score>
-4.12957767628265

> <r_i_glide_ligand_efficiency>
-0.158829910626256

> <r_i_glide_ligand_efficiency_sa>
-0.470532985264763

> <r_i_glide_ligand_efficiency_ln>
-0.969817767025418

> <r_i_glide_gscore>
-4.12957767628265

> <r_i_glide_lipo>
-0.242631895513006

> <r_i_glide_hbond>
-0.72

> <r_i_glide_metal>
0

> <r_i_glide_rewards>
-0.712548982242858

> <r_i_glide_evdw>
-21.4354972839355

> <r_i_glide_ecoul>
-10.5645189285278

> <r_i_glide_erotb>
0.625287901339008

> <r_i_glide_esite>
-0.423231996389847

> <r_i_glide_emodel>
-51.55065479883

> <r_i_glide_energy>
-32.0000162124634

> <r_i_glide_einternal>
4.28369808197021

> <i_i_glide_confnum>
114

> <i_i_glide_posenum>
391

> <r_i_glide_eff_state_penalty>
0

> <r_glide_res:A132_vdw>
-1.44026454293782

> <r_glide_res:A132_coul>
-39.4267698729962

> <r_glide_res:A132_hbond>
0

> <r_glide_res:A132_dist>
2.68807435851324

> <r_glide_res:A132_Eint>
-40.867034415934

> <r_glide_res:A117_vdw>
-3.68974208312966

> <r_glide_res:A117_coul>
9.99231542673625

> <r_glide_res:A117_hbond>
-0.16

> <r_glide_res:A117_dist>
2.04926062166558

> <r_glide_res:A117_Eint>
6.14257334360659

> <r_glide_res:A113_vdw>
-0.750702185007228

> <r_glide_res:A113_coul>
25.0500535108327

> <r_glide_res:A113_hbond>
0

> <r_glide_res:A113_dist>
2.0296768581267

> <r_glide_res:A113_Eint>
24.2993513258254

> <r_glide_res:A82_vdw>
2.94525422992188

> <r_glide_res:A82_coul>
-58.647746316609

> <r_glide_res:A82_hbond>
-0.4

> <r_glide_res:A82_dist>
1.68815008075931

> <r_glide_res:A82_Eint>
-56.1024920866872

> <r_glide_res:A42_vdw>
-0.0422848628003755

> <r_glide_res:A42_coul>
-40.8303470210238

> <r_glide_res:A42_hbond>
-0.16

> <r_glide_res:A42_dist>
1.77705262648973

> <r_glide_res:A42_Eint>
-41.0326318838241

> <r_glide_res:A16_vdw>
-0.308845155997636

> <r_glide_res:A16_coul>
-24.1025751071769

> <r_glide_res:A16_hbond>
0

> <r_glide_res:A16_dist>
4.28968851964638

> <r_glide_res:A16_Eint>
-24.4114202631745

> <s_m_source_file>
ligprep_Nicaido_neutral.maegz

> <i_m_source_file_index>
33

> <i_lp_mmshare_version>
58128

> <i_f3d_flags>
0

> <s_lp_Force_Field>
S-OPLS

> <r_lp_Energy>
31.39315

> <b_lp_Chiralities_Consistent>
1

> <s_lp_Variant>
Cephalothin-1

> <s_epik_input>
W0NIM11DKD1PKU9bQ0gyXUMoPUMxQyg9TylbT0hdKVtDSDJdU1tDQEBIXShOMTIpW0NASF0oQzI9TylbTkhdQyg9TylbQ0gyXWMzW2NIXVtjSF1bY0hdczM=

> <s_epik_cmdline>
J2VwaWtfcHl0aG9uJywgJy1waHQnLCAnMC4wJywgJy1waCcsICc3LjQnLCAnLW50JywgJy1tYScsICc1MDAnLCAnLWltYWUnLCAnPGluZmlsZS5tYWU+JywgJy1vbWFlJywgJzxvdXRmaWxlLm1hZT4n

> <r_lp_tautomer_probability>
1

> <r_epik_Ionization_Penalty>
  0.0000

> <r_epik_Ionization_Penalty_Charging>
  0.0000

> <r_epik_Ionization_Penalty_Neutral>
  0.0000

> <r_epik_State_Penalty>
  0.0000

> <r_epik_Charging_Adjusted_Penalty>
6.16900125885048e-06

> <i_epik_Tot_Q>
-1

> <i_epik_Tot_abs_Q>
1

> <s_epik_Chemistry_Notes>
This compound has an ester and may undergo hydrolysis at high or low pH. This compound contains an acetal/aminal-like group ( X-CH(R)-Y where X, Y are N, S, or O) that may be acid/base labile, releasing an aldehyde.

> <s_m_subgroup_title>
glide-dock_Nicaido_neutral_pv1

> <s_m_subgroupid>
glide-dock_Nicaido_neutral_pv1

> <b_m_subgroup_collapsed>
0

$$$$
Piperacillin
                    3D
 Schrodinger Suite 2022-2.
 62 65  0  0  1  0            999 V2000
  -29.1648  -24.4764  -17.7667 C   0  0  0  0  0  0
  -28.3675  -23.1763  -17.5576 C   0  0  0  0  0  0
  -27.7837  -22.6523  -18.7894 N   0  0  0  0  0  0
  -28.3235  -21.3656  -19.2315 C   0  0  0  0  0  0
  -27.4053  -20.6708  -20.2430 C   0  0  0  0  0  0
  -26.9784  -21.6198  -21.2943 N   0  0  0  0  0  0
  -26.4905  -22.8335  -20.9017 C   0  0  0  0  0  0
  -26.8192  -23.3194  -19.4610 C   0  0  0  0  0  0
  -26.2740  -24.3496  -19.0538 O   0  0  0  0  0  0
  -25.8708  -23.6274  -21.6230 O   0  0  0  0  0  0
  -27.2379  -21.3727  -22.6064 C   0  0  0  0  0  0
  -27.2662  -20.0615  -22.9409 N   0  0  0  0  0  0
  -27.1927  -19.4334  -24.2735 C   0  0  2  0  0  0
  -28.5751  -19.2935  -24.8872 C   0  0  0  0  0  0
  -28.7698  -18.4575  -26.0136 C   0  0  0  0  0  0
  -30.0346  -18.2425  -26.5915 C   0  0  0  0  0  0
  -31.1656  -18.8762  -26.0538 C   0  0  0  0  0  0
  -31.0143  -19.7227  -24.9437 C   0  0  0  0  0  0
  -29.7421  -19.9224  -24.3729 C   0  0  0  0  0  0
  -26.3083  -20.2374  -25.2546 C   0  0  0  0  0  0
  -24.9964  -19.9492  -25.2570 N   0  0  0  0  0  0
  -23.9525  -20.7424  -25.9136 C   0  0  1  0  0  0
  -22.5487  -20.4518  -25.3443 C   0  0  2  0  0  0
  -22.5234  -21.8108  -24.8404 N   0  0  0  0  0  0
  -23.7486  -22.1534  -25.3226 C   0  0  0  0  0  0
  -24.3689  -23.1885  -25.2121 O   0  0  0  0  0  0
  -21.7906  -22.2607  -23.6852 C   0  0  2  0  0  0
  -21.7936  -21.0056  -22.7428 C   0  0  0  0  0  0
  -22.9544  -21.1328  -21.7356 C   0  0  0  0  0  0
  -22.1508  -19.5501  -23.8094 S   0  0  0  0  0  0
  -20.4842  -20.7769  -21.9615 C   0  0  0  0  0  0
  -20.4519  -22.8547  -24.1580 C   0  0  0  0  0  0
  -20.3100  -24.0900  -23.9988 O   0  5  0  0  0  0
  -19.6224  -22.1018  -24.7123 O   0  0  0  0  0  0
  -26.7847  -21.1494  -25.9298 O   0  0  0  0  0  0
  -27.4176  -22.2718  -23.4368 O   0  0  0  0  0  0
  -29.5689  -24.8274  -16.8183 H   0  0  0  0  0  0
  -30.0026  -24.3179  -18.4466 H   0  0  0  0  0  0
  -28.5492  -25.2829  -18.1628 H   0  0  0  0  0  0
  -27.5697  -23.3255  -16.8294 H   0  0  0  0  0  0
  -29.0355  -22.4347  -17.1178 H   0  0  0  0  0  0
  -29.3022  -21.5485  -19.6777 H   0  0  0  0  0  0
  -28.4776  -20.6977  -18.3821 H   0  0  0  0  0  0
  -26.5160  -20.2914  -19.7361 H   0  0  0  0  0  0
  -27.9371  -19.7895  -20.6043 H   0  0  0  0  0  0
  -27.1706  -19.4039  -22.1796 H   0  0  0  0  0  0
  -26.7520  -18.4431  -24.1489 H   0  0  0  0  0  0
  -27.9273  -17.9499  -26.4465 H   0  0  0  0  0  0
  -30.1329  -17.5718  -27.4334 H   0  0  0  0  0  0
  -32.1432  -18.7008  -26.4782 H   0  0  0  0  0  0
  -31.8782  -20.2053  -24.5108 H   0  0  0  0  0  0
  -29.6924  -20.5631  -23.5072 H   0  0  0  0  0  0
  -24.6935  -19.1155  -24.7641 H   0  0  0  0  0  0
  -23.9729  -20.6968  -27.0022 H   0  0  0  0  0  0
  -21.7962  -20.2722  -26.1144 H   0  0  0  0  0  0
  -22.3442  -23.0727  -23.2094 H   0  0  0  0  0  0
  -22.8154  -21.9871  -21.0726 H   0  0  0  0  0  0
  -23.9096  -21.2637  -22.2455 H   0  0  0  0  0  0
  -23.0391  -20.2415  -21.1127 H   0  0  0  0  0  0
  -20.2144  -21.6530  -21.3717 H   0  0  0  0  0  0
  -19.6500  -20.5490  -22.6254 H   0  0  0  0  0  0
  -20.5793  -19.9336  -21.2768 H   0  0  0  0  0  0
  1  2  1  0  0  0
  1 37  1  0  0  0
  1 38  1  0  0  0
  1 39  1  0  0  0
  2  3  1  0  0  0
  2 40  1  0  0  0
  2 41  1  0  0  0
  3  8  1  0  0  0
  3  4  1  0  0  0
  4  5  1  0  0  0
  4 42  1  0  0  0
  4 43  1  0  0  0
  5  6  1  0  0  0
  5 44  1  0  0  0
  5 45  1  0  0  0
  6  7  1  0  0  0
  6 11  1  0  0  0
  7  8  1  0  0  0
  7 10  2  0  0  0
  8  9  2  0  0  0
 11 12  1  0  0  0
 11 36  2  0  0  0
 12 13  1  0  0  0
 12 46  1  0  0  0
 13 14  1  0  0  0
 13 20  1  0  0  0
 13 47  1  0  0  0
 14 19  1  0  0  0
 14 15  2  0  0  0
 15 16  1  0  0  0
 15 48  1  0  0  0
 16 17  2  0  0  0
 16 49  1  0  0  0
 17 18  1  0  0  0
 17 50  1  0  0  0
 18 19  2  0  0  0
 18 51  1  0  0  0
 19 52  1  0  0  0
 20 21  1  0  0  0
 20 35  2  0  0  0
 21 22  1  0  0  0
 21 53  1  0  0  0
 22 25  1  0  0  0
 22 23  1  0  0  0
 22 54  1  0  0  0
 23 30  1  0  0  0
 23 24  1  0  0  0
 23 55  1  0  0  0
 24 25  1  0  0  0
 24 27  1  0  0  0
 25 26  2  0  0  0
 27 28  1  0  0  0
 27 32  1  0  0  0
 27 56  1  0  0  0
 28 29  1  0  0  0
 28 30  1  0  0  0
 28 31  1  0  0  0
 29 57  1  0  0  0
 29 58  1  0  0  0
 29 59  1  0  0  0
 31 60  1  0  0  0
 31 61  1  0  0  0
 31 62  1  0  0  0
 32 33  1  0  0  0
 32 34  2  0  0  0
M  CHG  1  33  -1
M  END
> <s_m_entry_id>
27690

> <s_m_entry_name>
data_maestro.11

> <s_m_Source_Path>
C:\Users\olshana1\Git\GramNeg-Accumulation\Gram Negative Permeation - OmpF

> <s_m_Source_File>
data_maestro.csv

> <i_m_Source_File_Index>
11

> <s_m_job_name>
glide-dock_Nicaido_neutral

> <s_i_glide_gridfile>
3POX-grid

> <i_i_glide_lignum>
15

> <i_i_glide_rotatable_bonds>
9

> <r_i_docking_score>
-4.12748464966795

> <r_i_glide_ligand_efficiency>
-0.114652351379665

> <r_i_glide_ligand_efficiency_sa>
-0.378573722718149

> <r_i_glide_ligand_efficiency_ln>
-0.900505638809083

> <r_i_glide_gscore>
-4.12748464966795

> <r_i_glide_lipo>
0

> <r_i_glide_hbond>
-0.358819546045465

> <r_i_glide_metal>
0

> <r_i_glide_rewards>
0.0180337661245904

> <r_i_glide_evdw>
-32.3050079345703

> <r_i_glide_ecoul>
-12.4436149597168

> <r_i_glide_erotb>
0.461572583116075

> <r_i_glide_esite>
-0.766478812177114

> <r_i_glide_emodel>
-60.7163043020645

> <r_i_glide_energy>
-44.7486228942871

> <r_i_glide_einternal>
13.4325933456421

> <i_i_glide_confnum>
164

> <i_i_glide_posenum>
4

> <r_i_glide_eff_state_penalty>
0

> <r_glide_res:A132_vdw>
-2.56400502023234

> <r_glide_res:A132_coul>
-27.7009667739806

> <r_glide_res:A132_hbond>
-0.16315906637055

> <r_glide_res:A132_dist>
2.21499080660161

> <r_glide_res:A132_Eint>
-30.4281308605835

> <r_glide_res:A117_vdw>
-5.88636422072184

> <r_glide_res:A117_coul>
8.18877542451836

> <r_glide_res:A117_hbond>
-0.0331315398866541

> <r_glide_res:A117_dist>
2.16967040716808

> <r_glide_res:A117_Eint>
2.26927966390986

> <r_glide_res:A113_vdw>
-2.25117529463133

> <r_glide_res:A113_coul>
5.35632241577091

> <r_glide_res:A113_hbond>
0

> <r_glide_res:A113_dist>
2.47742213030219

> <r_glide_res:A113_Eint>
3.10514712113958

> <r_glide_res:A82_vdw>
-1.73738361214885

> <r_glide_res:A82_coul>
-30.7182148868223

> <r_glide_res:A82_hbond>
0

> <r_glide_res:A82_dist>
2.91595529933688

> <r_glide_res:A82_Eint>
-32.4555984989712

> <r_glide_res:A42_vdw>
2.01131268537518

> <r_glide_res:A42_coul>
-38.0958616188051

> <r_glide_res:A42_hbond>
-0.130353007082263

> <r_glide_res:A42_dist>
1.87295459269385

> <r_glide_res:A42_Eint>
-36.2149019405122

> <r_glide_res:A16_vdw>
-1.08648212305252

> <r_glide_res:A16_coul>
-20.4576599818097

> <r_glide_res:A16_hbond>
0

> <r_glide_res:A16_dist>
3.20134199614761

> <r_glide_res:A16_Eint>
-21.5441421048622

> <s_m_source_file>
ligprep_Nicaido_neutral.maegz

> <i_m_source_file_index>
11

> <i_lp_mmshare_version>
58128

> <i_f3d_flags>
0

> <s_lp_Force_Field>
S-OPLS

> <r_lp_Energy>
67.572455

> <b_lp_Chiralities_Consistent>
1

> <s_lp_Variant>
Piperacillin-1

> <s_epik_input>
W0NIM11bQ0gyXU4xW0NIMl1bQ0gyXU4oQyg9TylDMT1PKUMoPU8pW05IXVtDQEhdKGMyW2NIXVtjSF1bY0hdW2NIXVtjSF0yKUMoPU8pW05IXVtDQEBIXTNDKD1PKU4oW0NAQEhdMzQpW0NASF0oQyhTNCkoW0NIM10pW0NIM10pQyg9TylbT0hd

> <s_epik_cmdline>
J2VwaWtfcHl0aG9uJywgJy1waHQnLCAnMC4wJywgJy1waCcsICc3LjQnLCAnLW50JywgJy1tYScsICc1MDAnLCAnLWltYWUnLCAnPGluZmlsZS5tYWU+JywgJy1vbWFlJywgJzxvdXRmaWxlLm1hZT4n

> <r_lp_tautomer_probability>
1

> <r_epik_Ionization_Penalty>
  0.0049

> <r_epik_Ionization_Penalty_Charging>
  0.0000

> <r_epik_Ionization_Penalty_Neutral>
  0.0049

> <r_epik_State_Penalty>
  0.0000

> <r_epik_Charging_Adjusted_Penalty>
1.13204004886318e-05

> <i_epik_Tot_Q>
-1

> <i_epik_Tot_abs_Q>
1

> <s_epik_Chemistry_Notes>
This compound contains an acetal/aminal-like group ( X-CH(R)-Y where X, Y are N, S, or O) that may be acid/base labile, releasing an aldehyde.

> <s_m_subgroup_title>
glide-dock_Nicaido_neutral_pv1

> <s_m_subgroupid>
glide-dock_Nicaido_neutral_pv1

> <b_m_subgroup_collapsed>
0

$$$$
Penicillin N
                    3D
 Schrodinger Suite 2022-2.
 44 45  0  0  1  0            999 V2000
  -23.7595  -23.3149  -18.1393 C   0  0  0  0  0  0
  -22.2552  -23.6436  -18.0511 C   0  0  0  0  0  0
  -21.7966  -23.4193  -16.5963 C   0  0  0  0  0  0
  -22.0001  -25.0823  -18.6385 C   0  0  2  0  0  0
  -20.9054  -25.9490  -17.9695 C   0  0  0  0  0  0
  -19.8926  -26.3051  -18.6192 O   0  5  0  0  0  0
  -21.1689  -26.3495  -16.8134 O   0  0  0  0  0  0
  -21.7167  -24.8169  -20.0335 N   0  0  0  0  0  0
  -21.0271  -23.6348  -20.5111 C   0  0  1  0  0  0
  -21.8408  -23.7458  -21.8103 C   0  0  2  0  0  0
  -22.8025  -22.6461  -21.9283 N   0  0  0  0  0  0
  -23.8200  -22.5786  -22.7999 C   0  0  0  0  0  0
  -24.5638  -21.2361  -22.8913 C   0  0  0  0  0  0
  -26.1033  -21.3529  -22.8476 C   0  0  0  0  0  0
  -26.7064  -21.2400  -21.4278 C   0  0  0  0  0  0
  -28.1345  -21.8334  -21.2981 C   0  0  2  0  0  0
  -28.7689  -21.4496  -20.0134 N   0  3  0  0  0  0
  -28.0523  -23.3671  -21.3667 C   0  0  0  0  0  0
  -28.4221  -23.9496  -22.4133 O   0  5  0  0  0  0
  -27.5689  -23.9496  -20.3720 O   0  0  0  0  0  0
  -24.1274  -23.5140  -23.5413 O   0  0  0  0  0  0
  -22.3928  -25.0500  -21.2022 C   0  0  0  0  0  0
  -23.1689  -25.9226  -21.5302 O   0  0  0  0  0  0
  -21.3568  -22.4761  -19.1440 S   0  0  0  0  0  0
  -24.3488  -23.9751  -17.5017 H   0  0  0  0  0  0
  -23.9612  -22.2911  -17.8221 H   0  0  0  0  0  0
  -24.1367  -23.4182  -19.1576 H   0  0  0  0  0  0
  -22.3059  -24.0977  -15.9143 H   0  0  0  0  0  0
  -20.7223  -23.5639  -16.4804 H   0  0  0  0  0  0
  -22.0183  -22.4035  -16.2669 H   0  0  0  0  0  0
  -22.9189  -25.6675  -18.5799 H   0  0  0  0  0  0
  -19.9563  -23.7966  -20.6477 H   0  0  0  0  0  0
  -21.2065  -23.8729  -22.6877 H   0  0  0  0  0  0
  -22.6344  -21.8458  -21.3345 H   0  0  0  0  0  0
  -24.2761  -20.7915  -23.8447 H   0  0  0  0  0  0
  -24.2136  -20.5428  -22.1250 H   0  0  0  0  0  0
  -26.4091  -22.2822  -23.3274 H   0  0  0  0  0  0
  -26.5362  -20.5640  -23.4641 H   0  0  0  0  0  0
  -26.7160  -20.1871  -21.1410 H   0  0  0  0  0  0
  -26.0418  -21.7265  -20.7110 H   0  0  0  0  0  0
  -28.7682  -21.4561  -22.1022 H   0  0  0  0  0  0
  -29.6896  -21.8613  -19.9317 H   0  0  0  0  0  0
  -28.2029  -21.7968  -19.2530 H   0  0  0  0  0  0
  -28.8660  -20.4463  -19.9343 H   0  0  0  0  0  0
  1  2  1  0  0  0
  1 25  1  0  0  0
  1 26  1  0  0  0
  1 27  1  0  0  0
  2 24  1  0  0  0
  2  3  1  0  0  0
  2  4  1  0  0  0
  3 28  1  0  0  0
  3 29  1  0  0  0
  3 30  1  0  0  0
  4  5  1  0  0  0
  4  8  1  0  0  0
  4 31  1  0  0  0
  5  6  1  0  0  0
  5  7  2  0  0  0
  8 22  1  0  0  0
  8  9  1  0  0  0
  9 10  1  0  0  0
  9 24  1  0  0  0
  9 32  1  0  0  0
 10 11  1  0  0  0
 10 22  1  0  0  0
 10 33  1  0  0  0
 11 12  1  0  0  0
 11 34  1  0  0  0
 12 13  1  0  0  0
 12 21  2  0  0  0
 13 14  1  0  0  0
 13 35  1  0  0  0
 13 36  1  0  0  0
 14 15  1  0  0  0
 14 37  1  0  0  0
 14 38  1  0  0  0
 15 16  1  0  0  0
 15 39  1  0  0  0
 15 40  1  0  0  0
 16 17  1  0  0  0
 16 18  1  0  0  0
 16 41  1  0  0  0
 17 42  1  0  0  0
 17 43  1  0  0  0
 17 44  1  0  0  0
 18 19  1  0  0  0
 18 20  2  0  0  0
 22 23  2  0  0  0
M  CHG  3   6  -1  17   1  19  -1
M  END
> <s_m_entry_id>
27691

> <s_m_entry_name>
data_maestro.26

> <s_m_Source_Path>
C:\Users\olshana1\Git\GramNeg-Accumulation\Gram Negative Permeation - OmpF

> <s_m_Source_File>
data_maestro.csv

> <i_m_Source_File_Index>
26

> <s_m_job_name>
glide-dock_Nicaido_neutral

> <s_i_glide_gridfile>
3POX-grid

> <i_i_glide_lignum>
33

> <i_i_glide_rotatable_bonds>
8

> <r_i_docking_score>
-4.12204564446898

> <r_i_glide_ligand_efficiency>
-0.171751901852874

> <r_i_glide_ligand_efficiency_sa>
-0.495418212768754

> <r_i_glide_ligand_efficiency_ln>
-0.986594671070979

> <r_i_glide_gscore>
-4.12204564446898

> <r_i_glide_lipo>
0

> <r_i_glide_hbond>
-0.916949353185315

> <r_i_glide_metal>
0

> <r_i_glide_rewards>
-0.964776412840181

> <r_i_glide_evdw>
-12.5583562850952

> <r_i_glide_ecoul>
-14.278208732605

> <r_i_glide_erotb>
0.894795809723686

> <r_i_glide_esite>
-0.365466564021659

> <r_i_glide_emodel>
-48.7623733753767

> <r_i_glide_energy>
-26.8365650177002

> <r_i_glide_einternal>
5.21868228912354

> <i_i_glide_confnum>
138

> <i_i_glide_posenum>
61

> <r_i_glide_eff_state_penalty>
0

> <r_glide_res:A132_vdw>
-0.106002443324551

> <r_glide_res:A132_coul>
-49.3093979806642

> <r_glide_res:A132_hbond>
-0.232436562820674

> <r_glide_res:A132_dist>
1.87392198736113

> <r_glide_res:A132_Eint>
-49.6478369868094

> <r_glide_res:A117_vdw>
-0.588141779622342

> <r_glide_res:A117_coul>
8.87473090149271

> <r_glide_res:A117_hbond>
0

> <r_glide_res:A117_dist>
3.7592098485547

> <r_glide_res:A117_Eint>
8.28658912187036

> <r_glide_res:A113_vdw>
-0.470844339839676

> <r_glide_res:A113_coul>
-12.1850805503091

> <r_glide_res:A113_hbond>
-0.046432931976524

> <r_glide_res:A113_dist>
2.37263610526575

> <r_glide_res:A113_Eint>
-12.7023578221253

> <r_glide_res:A82_vdw>
-1.2692460415784

> <r_glide_res:A82_coul>
-41.7988840809046

> <r_glide_res:A82_hbond>
-0.242824818780784

> <r_glide_res:A82_dist>
2.18103093197467

> <r_glide_res:A82_Eint>
-43.3109549412638

> <r_glide_res:A42_vdw>
-0.763216341586987

> <r_glide_res:A42_coul>
-23.9517518782702

> <r_glide_res:A42_hbond>
0

> <r_glide_res:A42_dist>
2.94890377823117

> <r_glide_res:A42_Eint>
-24.7149682198572

> <r_glide_res:A16_vdw>
-0.0608425974573734

> <r_glide_res:A16_coul>
-12.4746867252668

> <r_glide_res:A16_hbond>
0

> <r_glide_res:A16_dist>
6.01169058384277

> <r_glide_res:A16_Eint>
-12.5355293227242

> <s_m_source_file>
ligprep_Nicaido_neutral.maegz

> <i_m_source_file_index>
26

> <i_lp_mmshare_version>
58128

> <i_f3d_flags>
0

> <s_lp_Force_Field>
S-OPLS

> <r_lp_Energy>
12.253328

> <b_lp_Chiralities_Consistent>
1

> <s_lp_Variant>
Penicillin N-1

> <s_epik_input>
W09IXUMoPU8pW0NASF0xQyhbQ0gzXSkoW0NIM10pU1tDQEBIXShOMTIpW0NAQEhdKEMyPU8pW05IXUMoPU8pW0NIMl1bQ0gyXVtDSDJdW0NASF0oW05IMl0pQyg9TylbT0hd

> <s_epik_cmdline>
J2VwaWtfcHl0aG9uJywgJy1waHQnLCAnMC4wJywgJy1waCcsICc3LjQnLCAnLW50JywgJy1tYScsICc1MDAnLCAnLWltYWUnLCAnPGluZmlsZS5tYWU+JywgJy1vbWFlJywgJzxvdXRmaWxlLm1hZT4n

> <r_lp_tautomer_probability>
1

> <r_epik_Ionization_Penalty>
  0.0034

> <r_epik_Ionization_Penalty_Charging>
  0.0034

> <r_epik_Ionization_Penalty_Neutral>
  0.0000

> <r_epik_State_Penalty>
  0.0000

> <r_epik_Charging_Adjusted_Penalty>
0.0034368723547391

> <i_epik_Tot_Q>
-1

> <i_epik_Tot_abs_Q>
3

> <s_epik_Chemistry_Notes>
This compound contains an acetal/aminal-like group ( X-CH(R)-Y where X, Y are N, S, or O) that may be acid/base labile, releasing an aldehyde.

> <s_m_subgroup_title>
glide-dock_Nicaido_neutral_pv1

> <s_m_subgroupid>
glide-dock_Nicaido_neutral_pv1

> <b_m_subgroup_collapsed>
0

$$$$
Cefoxitin
                    3D
 Schrodinger Suite 2022-2.
 44 46  0  0  1  0            999 V2000
  -23.2501  -18.1108  -21.9843 C   0  0  0  0  0  0
  -24.6172  -18.3441  -21.6695 O   0  0  0  0  0  0
  -25.2556  -19.3878  -22.4099 C   0  0  2  0  0  0
  -26.6052  -19.8352  -21.8177 C   0  0  1  0  0  0
  -25.9570  -21.0771  -21.4467 N   0  0  0  0  0  0
  -24.7315  -20.8009  -22.0203 C   0  0  0  0  0  0
  -23.7263  -21.4627  -22.1750 O   0  0  0  0  0  0
  -26.6771  -22.1313  -20.8875 C   0  0  0  0  0  0
  -26.1637  -23.5496  -21.2422 C   0  0  0  0  0  0
  -26.3688  -23.9496  -22.4133 O   0  5  0  0  0  0
  -25.7032  -24.2347  -20.3023 O   0  0  0  0  0  0
  -27.7918  -21.9260  -20.1438 C   0  0  0  0  0  0
  -28.3690  -20.5421  -19.8533 C   0  0  0  0  0  0
  -27.2967  -19.1496  -20.3061 S   0  0  0  0  0  0
  -28.5932  -23.0724  -19.5383 C   0  0  0  0  0  0
  -29.1149  -23.9497  -20.5337 O   0  0  0  0  0  0
  -30.1751  -23.6810  -21.3326 C   0  0  0  0  0  0
  -31.0103  -22.7128  -20.8134 N   0  0  0  0  0  0
  -30.3611  -24.2917  -22.3850 O   0  0  0  0  0  0
  -25.2849  -19.1496  -23.8534 N   0  0  0  0  0  0
  -25.6453  -20.0255  -24.8024 C   0  0  0  0  0  0
  -24.9946  -19.8195  -26.1464 C   0  0  0  0  0  0
  -23.5761  -20.2883  -26.0950 C   0  0  0  0  0  0
  -22.4619  -19.5665  -25.7495 C   0  0  0  0  0  0
  -21.2721  -20.3512  -25.7482 C   0  0  0  0  0  0
  -21.4901  -21.6493  -26.1204 C   0  0  0  0  0  0
  -23.1700  -21.9476  -26.4560 S   0  0  0  0  0  0
  -26.3657  -21.0120  -24.6299 O   0  0  0  0  0  0
  -22.9048  -17.2189  -21.4614 H   0  0  0  0  0  0
  -22.6194  -18.9427  -21.6709 H   0  0  0  0  0  0
  -23.0998  -17.9496  -23.0509 H   0  0  0  0  0  0
  -27.3952  -19.9947  -22.5521 H   0  0  0  0  0  0
  -29.2992  -20.4407  -20.4133 H   0  0  0  0  0  0
  -28.6072  -20.4558  -18.7930 H   0  0  0  0  0  0
  -27.9206  -23.6519  -18.9059 H   0  0  0  0  0  0
  -29.3662  -22.7113  -18.8704 H   0  0  0  0  0  0
  -30.8504  -22.3496  -19.8657 H   0  0  0  0  0  0
  -31.8317  -22.4629  -21.3408 H   0  0  0  0  0  0
  -24.8309  -18.2984  -24.1821 H   0  0  0  0  0  0
  -25.0752  -18.7819  -26.4705 H   0  0  0  0  0  0
  -25.5680  -20.4447  -26.8133 H   0  0  0  0  0  0
  -22.4668  -18.5192  -25.4821 H   0  0  0  0  0  0
  -20.3075  -19.9492  -25.4824 H   0  0  0  0  0  0
  -20.7680  -22.4437  -26.2326 H   0  0  0  0  0  0
  1  2  1  0  0  0
  1 29  1  0  0  0
  1 30  1  0  0  0
  1 31  1  0  0  0
  2  3  1  0  0  0
  3  6  1  0  0  0
  3  4  1  0  0  0
  3 20  1  0  0  0
  4 14  1  0  0  0
  4  5  1  0  0  0
  4 32  1  0  0  0
  5  6  1  0  0  0
  5  8  1  0  0  0
  6  7  2  0  0  0
  8  9  1  0  0  0
  8 12  2  0  0  0
  9 10  1  0  0  0
  9 11  2  0  0  0
 12 13  1  0  0  0
 12 15  1  0  0  0
 13 14  1  0  0  0
 13 33  1  0  0  0
 13 34  1  0  0  0
 15 16  1  0  0  0
 15 35  1  0  0  0
 15 36  1  0  0  0
 16 17  1  0  0  0
 17 18  1  0  0  0
 17 19  2  0  0  0
 18 37  1  0  0  0
 18 38  1  0  0  0
 20 21  1  0  0  0
 20 39  1  0  0  0
 21 22  1  0  0  0
 21 28  2  0  0  0
 22 23  1  0  0  0
 22 40  1  0  0  0
 22 41  1  0  0  0
 23 27  1  0  0  0
 23 24  2  0  0  0
 24 25  1  0  0  0
 24 42  1  0  0  0
 25 26  2  0  0  0
 25 43  1  0  0  0
 26 27  1  0  0  0
 26 44  1  0  0  0
M  CHG  1  10  -1
M  END
> <s_m_entry_id>
27692

> <s_m_entry_name>
data_maestro.4

> <s_m_Source_Path>
C:\Users\olshana1\Git\GramNeg-Accumulation\Gram Negative Permeation - OmpF

> <s_m_Source_File>
data_maestro.csv

> <i_m_Source_File_Index>
4

> <s_m_job_name>
glide-dock_Nicaido_neutral

> <s_i_glide_gridfile>
3POX-grid

> <i_i_glide_lignum>
4

> <i_i_glide_rotatable_bonds>
9

> <r_i_docking_score>
-4.09917035767635

> <r_i_glide_ligand_efficiency>
-0.146398941345584

> <r_i_glide_ligand_efficiency_sa>
-0.444553410290491

> <r_i_glide_ligand_efficiency_ln>
-0.946208875423236

> <r_i_glide_gscore>
-4.09917035767635

> <r_i_glide_lipo>
-0.0857063424664537

> <r_i_glide_hbond>
-0.879164911490339

> <r_i_glide_metal>
0

> <r_i_glide_rewards>
0.600169708083086

> <r_i_glide_evdw>
-26.2996063232422

> <r_i_glide_ecoul>
-15.6396226882935

> <r_i_glide_erotb>
0.545654768997296

> <r_i_glide_esite>
-0.619199861393811

> <r_i_glide_emodel>
-49.8612566142111

> <r_i_glide_energy>
-41.9392290115356

> <r_i_glide_einternal>
22.0603847503662

> <i_i_glide_confnum>
32

> <i_i_glide_posenum>
277

> <r_i_glide_eff_state_penalty>
0

> <r_glide_res:A132_vdw>
2.65932531049957

> <r_glide_res:A132_coul>
-54.0130504238605

> <r_glide_res:A132_hbond>
-0.383164911490339

> <r_glide_res:A132_dist>
1.6268987438116

> <r_glide_res:A132_Eint>
-51.7368900248513

> <r_glide_res:A117_vdw>
-4.38169985073295

> <r_glide_res:A117_coul>
7.80645143207235

> <r_glide_res:A117_hbond>
-0.152

> <r_glide_res:A117_dist>
1.9026135067062

> <r_glide_res:A117_Eint>
3.27275158133939

> <r_glide_res:A113_vdw>
0.00686345617796571

> <r_glide_res:A113_coul>
9.02461840866296

> <r_glide_res:A113_hbond>
-0.152

> <r_glide_res:A113_dist>
1.79838034177348

> <r_glide_res:A113_Eint>
8.87948186484092

> <r_glide_res:A82_vdw>
-0.889334366258638

> <r_glide_res:A82_coul>
-51.0205324397644

> <r_glide_res:A82_hbond>
-0.352

> <r_glide_res:A82_dist>
1.97863906592421

> <r_glide_res:A82_Eint>
-52.261866806023

> <r_glide_res:A42_vdw>
-1.78359538024717

> <r_glide_res:A42_coul>
-34.412670065546

> <r_glide_res:A42_hbond>
0

> <r_glide_res:A42_dist>
2.55583518283846

> <r_glide_res:A42_Eint>
-36.1962654457931

> <r_glide_res:A16_vdw>
-0.2018458459698

> <r_glide_res:A16_coul>
-19.4009601117778

> <r_glide_res:A16_hbond>
0

> <r_glide_res:A16_dist>
4.95400017661778

> <r_glide_res:A16_Eint>
-19.6028059577476

> <s_m_source_file>
ligprep_Nicaido_neutral.maegz

> <i_m_source_file_index>
4

> <i_lp_mmshare_version>
58128

> <i_f3d_flags>
0

> <s_lp_Force_Field>
S-OPLS

> <r_lp_Energy>
27.517474

> <b_lp_Chiralities_Consistent>
1

> <s_lp_Variant>
Cefoxitin-1

> <s_epik_input>
czFbY0hdW2NIXVtjSF1jMVtDSDJdQyg9TylbTkhdW0NAXTIoT1tDSDNdKUMoPU8pTihbQ0BIXTIzKUMoQyg9TylbT0hdKT1DKFtDSDJdUzMpW0NIMl1PQyg9TylbTkgyXQ==

> <s_epik_cmdline>
J2VwaWtfcHl0aG9uJywgJy1waHQnLCAnMC4wJywgJy1waCcsICc3LjQnLCAnLW50JywgJy1tYScsICc1MDAnLCAnLWltYWUnLCAnPGluZmlsZS5tYWU+JywgJy1vbWFlJywgJzxvdXRmaWxlLm1hZT4n

> <r_lp_tautomer_probability>
1

> <r_epik_Ionization_Penalty>
  0.0000

> <r_epik_Ionization_Penalty_Charging>
  0.0000

> <r_epik_Ionization_Penalty_Neutral>
  0.0000

> <r_epik_State_Penalty>
  0.0000

> <r_epik_Charging_Adjusted_Penalty>
8.89144247208744e-06

> <i_epik_Tot_Q>
-1

> <i_epik_Tot_abs_Q>
1

> <s_epik_Chemistry_Notes>
This compound has an ester and may undergo hydrolysis at high or low pH. This compound contains an acetal/aminal-like group ( X-CH(R)-Y where X, Y are N, S, or O) that may be acid/base labile, releasing an aldehyde.

> <s_m_subgroup_title>
glide-dock_Nicaido_neutral_pv1

> <s_m_subgroupid>
glide-dock_Nicaido_neutral_pv1

> <b_m_subgroup_collapsed>
0

$$$$
Cefamandole
                    3D
 Schrodinger Suite 2022-2.
 48 51  0  0  1  0            999 V2000
  -33.7597  -21.6611  -20.7048 C   0  0  0  0  0  0
  -33.7547  -22.3909  -21.9562 N   0  0  0  0  0  0
  -32.8107  -23.1238  -22.5611 C   0  0  0  0  0  0
  -31.1992  -23.3925  -21.9193 S   0  0  0  0  0  0
  -30.4503  -21.8478  -22.5173 C   0  0  0  0  0  0
  -29.0629  -21.6420  -21.9220 C   0  0  0  0  0  0
  -27.9017  -21.9415  -22.5594 C   0  0  0  0  0  0
  -26.6373  -21.7162  -21.9775 N   0  0  0  0  0  0
  -26.4289  -20.9185  -20.7781 C   0  0  2  0  0  0
  -24.9668  -21.4204  -20.7717 C   0  0  2  0  0  0
  -25.3070  -22.0799  -22.1385 C   0  0  0  0  0  0
  -24.7254  -22.7359  -22.9761 O   0  0  0  0  0  0
  -24.6269  -22.3292  -19.6526 N   0  0  0  0  0  0
  -25.0933  -23.5678  -19.3875 C   0  0  0  0  0  0
  -24.6091  -24.2564  -18.0971 C   0  0  2  0  0  0
  -23.0901  -24.3143  -18.0128 C   0  0  0  0  0  0
  -22.3548  -25.1480  -18.8848 C   0  0  0  0  0  0
  -20.9518  -25.2165  -18.7851 C   0  0  0  0  0  0
  -20.2774  -24.4568  -17.8094 C   0  0  0  0  0  0
  -21.0065  -23.6275  -16.9354 C   0  0  0  0  0  0
  -22.4091  -23.5554  -17.0357 C   0  0  0  0  0  0
  -25.1781  -25.5494  -18.0014 O   0  0  0  0  0  0
  -25.8966  -24.1554  -20.1145 O   0  0  0  0  0  0
  -27.6550  -21.3681  -19.5131 S   0  0  0  0  0  0
  -29.1307  -21.0780  -20.5121 C   0  0  0  0  0  0
  -27.8904  -22.5308  -24.0063 C   0  0  0  0  0  0
  -27.1686  -21.9495  -24.8411 O   0  5  0  0  0  0
  -28.5872  -23.5495  -24.2132 O   0  0  0  0  0  0
  -33.2577  -23.6111  -23.7114 N   0  0  0  0  0  0
  -34.5516  -23.1331  -23.7905 N   0  0  0  0  0  0
  -34.8525  -22.4074  -22.7518 N   0  0  0  0  0  0
  -32.7446  -21.3898  -20.4142 H   0  0  0  0  0  0
  -34.3473  -20.7491  -20.8133 H   0  0  0  0  0  0
  -34.1995  -22.2769  -19.9205 H   0  0  0  0  0  0
  -31.0779  -21.0028  -22.2304 H   0  0  0  0  0  0
  -30.4471  -21.8515  -23.6060 H   0  0  0  0  0  0
  -26.5017  -19.8557  -21.0159 H   0  0  0  0  0  0
  -24.2680  -20.5871  -20.8541 H   0  0  0  0  0  0
  -23.9814  -21.9472  -18.9771 H   0  0  0  0  0  0
  -24.9907  -23.6779  -17.2520 H   0  0  0  0  0  0
  -22.8685  -25.7342  -19.6334 H   0  0  0  0  0  0
  -20.3948  -25.8426  -19.4659 H   0  0  0  0  0  0
  -19.2007  -24.4980  -17.7374 H   0  0  0  0  0  0
  -20.4883  -23.0392  -16.1922 H   0  0  0  0  0  0
  -22.9567  -22.9185  -16.3546 H   0  0  0  0  0  0
  -26.0203  -25.4405  -17.5738 H   0  0  0  0  0  0
  -29.3327  -20.0093  -20.5614 H   0  0  0  0  0  0
  -29.9690  -21.5500  -20.0133 H   0  0  0  0  0  0
  1  2  1  0  0  0
  1 32  1  0  0  0
  1 33  1  0  0  0
  1 34  1  0  0  0
  2 31  1  0  0  0
  2  3  1  0  0  0
  3  4  1  0  0  0
  3 29  2  0  0  0
  4  5  1  0  0  0
  5  6  1  0  0  0
  5 35  1  0  0  0
  5 36  1  0  0  0
  6 25  1  0  0  0
  6  7  2  0  0  0
  7  8  1  0  0  0
  7 26  1  0  0  0
  8 11  1  0  0  0
  8  9  1  0  0  0
  9 10  1  0  0  0
  9 24  1  0  0  0
  9 37  1  0  0  0
 10 11  1  0  0  0
 10 13  1  0  0  0
 10 38  1  0  0  0
 11 12  2  0  0  0
 13 14  1  0  0  0
 13 39  1  0  0  0
 14 15  1  0  0  0
 14 23  2  0  0  0
 15 16  1  0  0  0
 15 22  1  0  0  0
 15 40  1  0  0  0
 16 21  1  0  0  0
 16 17  2  0  0  0
 17 18  1  0  0  0
 17 41  1  0  0  0
 18 19  2  0  0  0
 18 42  1  0  0  0
 19 20  1  0  0  0
 19 43  1  0  0  0
 20 21  2  0  0  0
 20 44  1  0  0  0
 21 45  1  0  0  0
 22 46  1  0  0  0
 24 25  1  0  0  0
 25 47  1  0  0  0
 25 48  1  0  0  0
 26 27  1  0  0  0
 26 28  2  0  0  0
 29 30  1  0  0  0
 30 31  2  0  0  0
M  CHG  1  27  -1
M  END
> <s_m_entry_id>
27693

> <s_m_entry_name>
data_maestro.9

> <s_m_Source_Path>
C:\Users\olshana1\Git\GramNeg-Accumulation\Gram Negative Permeation - OmpF

> <s_m_Source_File>
data_maestro.csv

> <i_m_Source_File_Index>
9

> <s_m_job_name>
glide-dock_Nicaido_neutral

> <s_i_glide_gridfile>
3POX-grid

> <i_i_glide_lignum>
12

> <i_i_glide_rotatable_bonds>
9

> <r_i_docking_score>
-4.09815371878391

> <r_i_glide_ligand_efficiency>
-0.132198507057545

> <r_i_glide_ligand_efficiency_sa>
-0.415285831870238

> <r_i_glide_ligand_efficiency_ln>
-0.924259256914064

> <r_i_glide_gscore>
-4.09815371878391

> <r_i_glide_lipo>
0

> <r_i_glide_hbond>
-0.450939047129546

> <r_i_glide_metal>
0

> <r_i_glide_rewards>
-0.262515669740794

> <r_i_glide_evdw>
-22.8710651397705

> <r_i_glide_ecoul>
-16.2676181793213

> <r_i_glide_erotb>
0.567285116635731

> <r_i_glide_esite>
-0.36828813466258

> <r_i_glide_emodel>
-57.2754248224453

> <r_i_glide_energy>
-39.1386833190918

> <r_i_glide_einternal>
10.3131952285767

> <i_i_glide_confnum>
21

> <i_i_glide_posenum>
111

> <r_i_glide_eff_state_penalty>
0

> <r_glide_res:A132_vdw>
-1.29148965382148

> <r_glide_res:A132_coul>
-40.6524959202548

> <r_glide_res:A132_hbond>
-0.16

> <r_glide_res:A132_dist>
1.75880653295562

> <r_glide_res:A132_Eint>
-42.1039855740763

> <r_glide_res:A117_vdw>
-1.05739004943375

> <r_glide_res:A117_coul>
23.8232001986644

> <r_glide_res:A117_hbond>
0

> <r_glide_res:A117_dist>
3.55190506192447

> <r_glide_res:A117_Eint>
22.7658101492306

> <r_glide_res:A113_vdw>
-2.5504115351443

> <r_glide_res:A113_coul>
15.1498053034842

> <r_glide_res:A113_hbond>
0

> <r_glide_res:A113_dist>
2.30616902910955

> <r_glide_res:A113_Eint>
12.5993937683399

> <r_glide_res:A82_vdw>
-1.19825515222779

> <r_glide_res:A82_coul>
-48.0862047872255

> <r_glide_res:A82_hbond>
-0.0497809054594546

> <r_glide_res:A82_dist>
2.28119681280347

> <r_glide_res:A82_Eint>
-49.3342408449127

> <r_glide_res:A42_vdw>
0.580192010053348

> <r_glide_res:A42_coul>
-53.8028486650884

> <r_glide_res:A42_hbond>
-0.241158141670091

> <r_glide_res:A42_dist>
1.71543398205137

> <r_glide_res:A42_Eint>
-53.4638147967052

> <r_glide_res:A16_vdw>
-0.308961420029824

> <r_glide_res:A16_coul>
-29.197999011643

> <r_glide_res:A16_hbond>
0

> <r_glide_res:A16_dist>
4.56871149191054

> <r_glide_res:A16_Eint>
-29.5069604316728

> <s_m_source_file>
ligprep_Nicaido_neutral.maegz

> <i_m_source_file_index>
9

> <i_lp_mmshare_version>
58128

> <i_f3d_flags>
0

> <s_lp_Force_Field>
S-OPLS

> <r_lp_Energy>
50.610726

> <b_lp_Chiralities_Consistent>
1

> <s_lp_Variant>
Cefamandole-1

> <s_epik_input>
bjFubmMobjFbQ0gzXSlTW0NIMl1DKD1DMkMoPU8pW09IXSlbQ0gyXVNbQ0BIXShOMjMpW0NASF0oQzM9TylbTkhdQyg9TylbQ0BASF0oW09IXSljNFtjSF1bY0hdW2NIXVtjSF1bY0hdNA==

> <s_epik_cmdline>
J2VwaWtfcHl0aG9uJywgJy1waHQnLCAnMC4wJywgJy1waCcsICc3LjQnLCAnLW50JywgJy1tYScsICc1MDAnLCAnLWltYWUnLCAnPGluZmlsZS5tYWU+JywgJy1vbWFlJywgJzxvdXRmaWxlLm1hZT4n

> <r_lp_tautomer_probability>
1

> <r_epik_Ionization_Penalty>
  0.0002

> <r_epik_Ionization_Penalty_Charging>
  0.0000

> <r_epik_Ionization_Penalty_Neutral>
  0.0002

> <r_epik_State_Penalty>
  0.0000

> <r_epik_Charging_Adjusted_Penalty>
8.65070171415913e-06

> <i_epik_Tot_Q>
-1

> <i_epik_Tot_abs_Q>
1

> <s_epik_Chemistry_Notes>
This compound contains an acetal/aminal-like group ( X-CH(R)-Y where X, Y are N, S, or O) that may be acid/base labile, releasing an aldehyde.

> <s_m_subgroup_title>
glide-dock_Nicaido_neutral_pv1

> <s_m_subgroupid>
glide-dock_Nicaido_neutral_pv1

> <b_m_subgroup_collapsed>
0

$$$$
Carbenicillin
                    3D
 Schrodinger Suite 2022-2.
 42 44  0  0  1  0            999 V2000
  -27.1181  -20.6037  -22.8699 C   0  0  0  0  0  0
  -27.6941  -21.0246  -21.5014 C   0  0  0  0  0  0
  -27.5742  -22.5592  -21.1772 C   0  0  2  0  0  0
  -26.3735  -22.6547  -20.3647 N   0  0  0  0  0  0
  -25.9909  -21.6324  -19.4133 C   0  0  2  0  0  0
  -26.6859  -20.1633  -20.2263 S   0  0  0  0  0  0
  -24.5448  -22.1259  -19.5510 C   0  0  2  0  0  0
  -25.1565  -23.2958  -20.3396 C   0  0  0  0  0  0
  -24.7690  -24.3466  -20.8078 O   0  0  0  0  0  0
  -23.9665  -22.5089  -18.2664 N   0  0  0  0  0  0
  -22.7324  -23.0140  -18.1081 C   0  0  0  0  0  0
  -22.2624  -23.1749  -16.6472 C   0  0  2  0  0  0
  -21.5437  -21.9012  -16.1865 C   0  0  0  0  0  0
  -22.1674  -21.0749  -15.2275 C   0  0  0  0  0  0
  -21.5668  -19.8706  -14.8144 C   0  0  0  0  0  0
  -20.3304  -19.4791  -15.3605 C   0  0  0  0  0  0
  -19.7010  -20.2904  -16.3241 C   0  0  0  0  0  0
  -20.3072  -21.4919  -16.7403 C   0  0  0  0  0  0
  -21.4127  -24.4659  -16.5029 C   0  0  0  0  0  0
  -21.9688  -25.5496  -16.8007 O   0  5  0  0  0  0
  -20.2596  -24.3997  -16.0134 O   0  0  0  0  0  0
  -21.9998  -23.2789  -19.0648 O   0  0  0  0  0  0
  -27.6446  -23.5444  -22.3667 C   0  0  0  0  0  0
  -26.7220  -23.5495  -23.2109 O   0  5  0  0  0  0
  -28.6024  -24.3495  -22.4133 O   0  0  0  0  0  0
  -29.1563  -20.5608  -21.4001 C   0  0  0  0  0  0
  -27.6893  -21.0215  -23.6989 H   0  0  0  0  0  0
  -27.1371  -19.5191  -22.9844 H   0  0  0  0  0  0
  -26.0809  -20.9216  -22.9790 H   0  0  0  0  0  0
  -28.3840  -22.8312  -20.4979 H   0  0  0  0  0  0
  -26.4358  -21.7857  -18.4273 H   0  0  0  0  0  0
  -23.9249  -21.4485  -20.1406 H   0  0  0  0  0  0
  -24.5063  -22.3002  -17.4387 H   0  0  0  0  0  0
  -23.1416  -23.3233  -16.0186 H   0  0  0  0  0  0
  -23.1234  -21.3587  -14.8137 H   0  0  0  0  0  0
  -22.0594  -19.2452  -14.0839 H   0  0  0  0  0  0
  -19.8711  -18.5528  -15.0477 H   0  0  0  0  0  0
  -18.7568  -19.9866  -16.7516 H   0  0  0  0  0  0
  -19.8222  -22.1017  -17.4888 H   0  0  0  0  0  0
  -29.7851  -21.0613  -22.1363 H   0  0  0  0  0  0
  -29.5691  -20.7730  -20.4134 H   0  0  0  0  0  0
  -29.2443  -19.4854  -21.5597 H   0  0  0  0  0  0
  1  2  1  0  0  0
  1 27  1  0  0  0
  1 28  1  0  0  0
  1 29  1  0  0  0
  2  6  1  0  0  0
  2  3  1  0  0  0
  2 26  1  0  0  0
  3  4  1  0  0  0
  3 23  1  0  0  0
  3 30  1  0  0  0
  4  8  1  0  0  0
  4  5  1  0  0  0
  5  6  1  0  0  0
  5  7  1  0  0  0
  5 31  1  0  0  0
  7  8  1  0  0  0
  7 10  1  0  0  0
  7 32  1  0  0  0
  8  9  2  0  0  0
 10 11  1  0  0  0
 10 33  1  0  0  0
 11 12  1  0  0  0
 11 22  2  0  0  0
 12 13  1  0  0  0
 12 19  1  0  0  0
 12 34  1  0  0  0
 13 18  1  0  0  0
 13 14  2  0  0  0
 14 15  1  0  0  0
 14 35  1  0  0  0
 15 16  2  0  0  0
 15 36  1  0  0  0
 16 17  1  0  0  0
 16 37  1  0  0  0
 17 18  2  0  0  0
 17 38  1  0  0  0
 18 39  1  0  0  0
 19 20  1  0  0  0
 19 21  2  0  0  0
 23 24  1  0  0  0
 23 25  2  0  0  0
 26 40  1  0  0  0
 26 41  1  0  0  0
 26 42  1  0  0  0
M  CHG  2  20  -1  24  -1
M  END
> <s_m_entry_id>
27694

> <s_m_entry_name>
data_maestro.24

> <s_m_Source_Path>
C:\Users\olshana1\Git\GramNeg-Accumulation\Gram Negative Permeation - OmpF

> <s_m_Source_File>
data_maestro.csv

> <i_m_Source_File_Index>
24

> <s_m_job_name>
glide-dock_Nicaido_neutral

> <s_i_glide_gridfile>
3POX-grid

> <i_i_glide_lignum>
31

> <i_i_glide_rotatable_bonds>
6

> <r_i_docking_score>
-4.09635934923653

> <r_i_glide_ligand_efficiency>
-0.157552282662943

> <r_i_glide_ligand_efficiency_sa>
-0.466748017450673

> <r_i_glide_ligand_efficiency_ln>
-0.962016551916857

> <r_i_glide_gscore>
-4.09635934923653

> <r_i_glide_lipo>
-0.00755958657752529

> <r_i_glide_hbond>
-0.936031089445891

> <r_i_glide_metal>
0

> <r_i_glide_rewards>
-0.842612923270813

> <r_i_glide_evdw>
-16.7307643890381

> <r_i_glide_ecoul>
-10.237174987793

> <r_i_glide_erotb>
0.409918473255716

> <r_i_glide_esite>
-0.347959755577167

> <r_i_glide_emodel>
-48.8594343580472

> <r_i_glide_energy>
-26.9679393768311

> <r_i_glide_einternal>
3.00017118453979

> <i_i_glide_confnum>
5

> <i_i_glide_posenum>
365

> <r_i_glide_eff_state_penalty>
0

> <r_glide_res:A132_vdw>
0.677228081665537

> <r_glide_res:A132_coul>
-63.6977290152722

> <r_glide_res:A132_hbond>
-0.146969646967589

> <r_glide_res:A132_dist>
1.81844175880456

> <r_glide_res:A132_Eint>
-63.1674705805743

> <r_glide_res:A117_vdw>
-1.36925171475553

> <r_glide_res:A117_coul>
34.0775085719945

> <r_glide_res:A117_hbond>
0

> <r_glide_res:A117_dist>
2.8040360265168

> <r_glide_res:A117_Eint>
32.708256857239

> <r_glide_res:A113_vdw>
-1.57357089134146

> <r_glide_res:A113_coul>
36.897806343124

> <r_glide_res:A113_hbond>
0

> <r_glide_res:A113_dist>
2.37106598816143

> <r_glide_res:A113_Eint>
35.3242354517825

> <r_glide_res:A82_vdw>
2.55744970875542

> <r_glide_res:A82_coul>
-71.6257916934577

> <r_glide_res:A82_hbond>
-0.534094978832229

> <r_glide_res:A82_dist>
1.82733224431809

> <r_glide_res:A82_Eint>
-69.6024369635345

> <r_glide_res:A42_vdw>
-0.859593291905361

> <r_glide_res:A42_coul>
-47.3795688770495

> <r_glide_res:A42_hbond>
0

> <r_glide_res:A42_dist>
2.99298959203734

> <r_glide_res:A42_Eint>
-48.2391621689549

> <r_glide_res:A16_vdw>
-0.0808656813774341

> <r_glide_res:A16_coul>
-30.9143269936401

> <r_glide_res:A16_hbond>
0

> <r_glide_res:A16_dist>
5.13216977431797

> <r_glide_res:A16_Eint>
-30.9951926750175

> <s_m_source_file>
ligprep_Nicaido_neutral.maegz

> <i_m_source_file_index>
24

> <i_lp_mmshare_version>
58128

> <i_f3d_flags>
0

> <s_lp_Force_Field>
S-OPLS

> <r_lp_Energy>
37.112724

> <b_lp_Chiralities_Consistent>
1

> <s_lp_Variant>
Carbenicillin-1

> <s_epik_input>
W09IXUMoPU8pW0NAQEhdMUMoW0NIM10pKFtDSDNdKVNbQ0BASF0oTjEyKVtDQEhdKEMyPU8pW05IXUMoPU8pW0NAQEhdKEMoPU8pW09IXSljM1tjSF1bY0hdW2NIXVtjSF1bY0hdMw==

> <s_epik_cmdline>
J2VwaWtfcHl0aG9uJywgJy1waHQnLCAnMC4wJywgJy1waCcsICc3LjQnLCAnLW50JywgJy1tYScsICc1MDAnLCAnLWltYWUnLCAnPGluZmlsZS5tYWU+JywgJy1vbWFlJywgJzxvdXRmaWxlLm1hZT4n

> <r_lp_tautomer_probability>
1

> <r_epik_Ionization_Penalty>
  0.0000

> <r_epik_Ionization_Penalty_Charging>
  0.0000

> <r_epik_Ionization_Penalty_Neutral>
  0.0000

> <r_epik_State_Penalty>
  0.0000

> <r_epik_Charging_Adjusted_Penalty>
4.98035685666923e-05

> <i_epik_Tot_Q>
-2

> <i_epik_Tot_abs_Q>
2

> <s_epik_Chemistry_Notes>
This compound contains an acetal/aminal-like group ( X-CH(R)-Y where X, Y are N, S, or O) that may be acid/base labile, releasing an aldehyde.

> <s_m_subgroup_title>
glide-dock_Nicaido_neutral_pv1

> <s_m_subgroupid>
glide-dock_Nicaido_neutral_pv1

> <b_m_subgroup_collapsed>
0

$$$$
Sulbenicillin
                    3D
 Schrodinger Suite 2022-2.
 43 45  0  0  1  0            999 V2000
  -21.9383  -20.9335  -24.5223 C   0  0  0  0  0  0
  -23.4218  -21.3589  -24.5474 C   0  0  0  0  0  0
  -23.7310  -22.7113  -23.7983 C   0  0  2  0  0  0
  -24.6614  -22.3564  -22.7485 N   0  0  0  0  0  0
  -24.8799  -21.0176  -22.2412 C   0  0  1  0  0  0
  -24.3948  -20.0507  -23.6988 S   0  0  0  0  0  0
  -26.3061  -21.4491  -21.8603 C   0  0  2  0  0  0
  -25.8699  -22.8444  -22.3363 C   0  0  0  0  0  0
  -26.3621  -23.9501  -22.4135 O   0  0  0  0  0  0
  -27.3099  -20.8179  -22.7155 N   0  0  0  0  0  0
  -28.5386  -21.3067  -22.9547 C   0  0  0  0  0  0
  -29.4080  -20.5288  -23.9498 C   0  0  2  0  0  0
  -30.6470  -19.9690  -23.2426 C   0  0  0  0  0  0
  -31.9418  -20.5246  -23.3796 C   0  0  0  0  0  0
  -33.0270  -19.9946  -22.6534 C   0  0  0  0  0  0
  -32.8303  -18.9094  -21.7793 C   0  0  0  0  0  0
  -31.5488  -18.3496  -21.6348 C   0  0  0  0  0  0
  -30.4689  -18.8689  -22.3710 C   0  0  0  0  0  0
  -29.7122  -21.5641  -25.4714 S   0  0  0  0  0  0
  -30.4859  -22.7459  -25.0629 O   0  0  0  0  0  0
  -28.3687  -21.9394  -25.9283 O   0  5  0  0  0  0
  -30.4176  -20.6822  -26.4126 O   0  0  0  0  0  0
  -28.9628  -22.3322  -22.4183 O   0  0  0  0  0  0
  -22.5399  -23.5184  -23.2408 C   0  0  0  0  0  0
  -22.1898  -23.3360  -22.0526 O   0  5  0  0  0  0
  -22.0100  -24.3496  -24.0130 O   0  0  0  0  0  0
  -23.8968  -21.4341  -26.0094 C   0  0  0  0  0  0
  -21.3041  -21.6545  -25.0390 H   0  0  0  0  0  0
  -21.7982  -19.9695  -25.0129 H   0  0  0  0  0  0
  -21.5692  -20.8302  -23.5007 H   0  0  0  0  0  0
  -24.2656  -23.3824  -24.4726 H   0  0  0  0  0  0
  -24.2494  -20.7838  -21.3814 H   0  0  0  0  0  0
  -26.5075  -21.3571  -20.7924 H   0  0  0  0  0  0
  -27.0268  -19.9638  -23.1757 H   0  0  0  0  0  0
  -28.8443  -19.6695  -24.3134 H   0  0  0  0  0  0
  -32.1310  -21.3672  -24.0231 H   0  0  0  0  0  0
  -34.0101  -20.4303  -22.7544 H   0  0  0  0  0  0
  -33.6591  -18.5135  -21.2132 H   0  0  0  0  0  0
  -31.3887  -17.5250  -20.9547 H   0  0  0  0  0  0
  -29.4902  -18.4277  -22.2380 H   0  0  0  0  0  0
  -23.3999  -22.2394  -26.5511 H   0  0  0  0  0  0
  -24.9738  -21.5950  -26.0676 H   0  0  0  0  0  0
  -23.6883  -20.5043  -26.5397 H   0  0  0  0  0  0
  1  2  1  0  0  0
  1 28  1  0  0  0
  1 29  1  0  0  0
  1 30  1  0  0  0
  2  6  1  0  0  0
  2  3  1  0  0  0
  2 27  1  0  0  0
  3  4  1  0  0  0
  3 24  1  0  0  0
  3 31  1  0  0  0
  4  8  1  0  0  0
  4  5  1  0  0  0
  5  6  1  0  0  0
  5  7  1  0  0  0
  5 32  1  0  0  0
  7  8  1  0  0  0
  7 10  1  0  0  0
  7 33  1  0  0  0
  8  9  2  0  0  0
 10 11  1  0  0  0
 10 34  1  0  0  0
 11 12  1  0  0  0
 11 23  2  0  0  0
 12 13  1  0  0  0
 12 19  1  0  0  0
 12 35  1  0  0  0
 13 18  1  0  0  0
 13 14  2  0  0  0
 14 15  1  0  0  0
 14 36  1  0  0  0
 15 16  2  0  0  0
 15 37  1  0  0  0
 16 17  1  0  0  0
 16 38  1  0  0  0
 17 18  2  0  0  0
 17 39  1  0  0  0
 18 40  1  0  0  0
 19 20  2  0  0  0
 19 21  1  0  0  0
 19 22  2  0  0  0
 24 25  1  0  0  0
 24 26  2  0  0  0
 27 41  1  0  0  0
 27 42  1  0  0  0
 27 43  1  0  0  0
M  CHG  2  21  -1  25  -1
M  END
> <s_m_entry_id>
27695

> <s_m_entry_name>
data_maestro.23

> <s_m_Source_Path>
C:\Users\olshana1\Git\GramNeg-Accumulation\Gram Negative Permeation - OmpF

> <s_m_Source_File>
data_maestro.csv

> <i_m_Source_File_Index>
23

> <s_m_job_name>
glide-dock_Nicaido_neutral

> <s_i_glide_gridfile>
3POX-grid

> <i_i_glide_lignum>
30

> <i_i_glide_rotatable_bonds>
6

> <r_i_docking_score>
-4.08890123241019

> <r_i_glide_ligand_efficiency>
-0.151440786385563

> <r_i_glide_ligand_efficiency_sa>
-0.454322358657564

> <r_i_glide_ligand_efficiency_ln>
-0.951828796099836

> <r_i_glide_gscore>
-4.08890123241019

> <r_i_glide_lipo>
0

> <r_i_glide_hbond>
-0.65799015556223

> <r_i_glide_metal>
0

> <r_i_glide_rewards>
-0.596963715839016

> <r_i_glide_evdw>
-22.3254795074463

> <r_i_glide_ecoul>
-9.8737268447876

> <r_i_glide_erotb>
0.347763984117939

> <r_i_glide_esite>
-0.584378343036432

> <r_i_glide_emodel>
-52.5984040834204

> <r_i_glide_energy>
-32.1992063522339

> <r_i_glide_einternal>
3.54465198516846

> <i_i_glide_confnum>
18

> <i_i_glide_posenum>
359

> <r_i_glide_eff_state_penalty>
0

> <r_glide_res:A132_vdw>
-1.24016558942933

> <r_glide_res:A132_coul>
-53.0065800331076

> <r_glide_res:A132_hbond>
-0.0302069612569745

> <r_glide_res:A132_dist>
2.36017098732112

> <r_glide_res:A132_Eint>
-54.2769525837939

> <r_glide_res:A117_vdw>
-3.48547157208149

> <r_glide_res:A117_coul>
42.5510690902845

> <r_glide_res:A117_hbond>
0

> <r_glide_res:A117_dist>
2.80577432299876

> <r_glide_res:A117_Eint>
39.0655975182031

> <r_glide_res:A113_vdw>
-2.71784841270293

> <r_glide_res:A113_coul>
41.998315591606

> <r_glide_res:A113_hbond>
0

> <r_glide_res:A113_dist>
2.64741190021833

> <r_glide_res:A113_Eint>
39.2804671789031

> <r_glide_res:A82_vdw>
-1.48000169437162

> <r_glide_res:A82_coul>
-63.6068025830104

> <r_glide_res:A82_hbond>
-0.159543454911128

> <r_glide_res:A82_dist>
1.98096183938705

> <r_glide_res:A82_Eint>
-65.2463477322932

> <r_glide_res:A42_vdw>
0.538362035790164

> <r_glide_res:A42_coul>
-70.4198737894812

> <r_glide_res:A42_hbond>
-0.268239739394127

> <r_glide_res:A42_dist>
1.87332897085087

> <r_glide_res:A42_Eint>
-70.1497514930852

> <r_glide_res:A16_vdw>
1.81328724468533

> <r_glide_res:A16_coul>
-63.9161138892117

> <r_glide_res:A16_hbond>
0

> <r_glide_res:A16_dist>
1.77717400831399

> <r_glide_res:A16_Eint>
-62.1028266445264

> <s_m_source_file>
ligprep_Nicaido_neutral.maegz

> <i_m_source_file_index>
23

> <i_lp_mmshare_version>
58128

> <i_f3d_flags>
0

> <s_lp_Force_Field>
S-OPLS

> <r_lp_Energy>
22.166908

> <b_lp_Chiralities_Consistent>
1

> <s_lp_Variant>
Sulbenicillin-1

> <s_epik_input>
W09IXUMoPU8pW0NAQEhdMUMoW0NIM10pKFtDSDNdKVNbQ0BIXShOMTIpW0NASF0oQzI9TylbTkhdQyg9TylbQ0BASF0oUyg9TykoPU8pW09IXSljM1tjSF1bY0hdW2NIXVtjSF1bY0hdMw==

> <s_epik_cmdline>
J2VwaWtfcHl0aG9uJywgJy1waHQnLCAnMC4wJywgJy1waCcsICc3LjQnLCAnLW50JywgJy1tYScsICc1MDAnLCAnLWltYWUnLCAnPGluZmlsZS5tYWU+JywgJy1vbWFlJywgJzxvdXRmaWxlLm1hZT4n

> <r_lp_tautomer_probability>
1

> <r_epik_Ionization_Penalty>
  0.0000

> <r_epik_Ionization_Penalty_Charging>
  0.0000

> <r_epik_Ionization_Penalty_Neutral>
  0.0000

> <r_epik_State_Penalty>
  0.0000

> <r_epik_Charging_Adjusted_Penalty>
1.13251598244902e-05

> <i_epik_Tot_Q>
-2

> <i_epik_Tot_abs_Q>
2

> <s_epik_Chemistry_Notes>
This compound contains an acetal/aminal-like group ( X-CH(R)-Y where X, Y are N, S, or O) that may be acid/base labile, releasing an aldehyde.

> <s_m_subgroup_title>
glide-dock_Nicaido_neutral_pv1

> <s_m_subgroupid>
glide-dock_Nicaido_neutral_pv1

> <b_m_subgroup_collapsed>
0

$$$$
Ceftriaxone
                    3D
 Schrodinger Suite 2022-2.
 52 55  0  0  1  0            999 V2000
  -25.2006  -23.0367  -19.7410 C   0  0  0  0  0  0
  -24.9674  -23.2795  -21.1609 N   0  0  0  0  0  0
  -25.5353  -22.4418  -22.1621 C   0  0  0  0  0  0
  -26.7189  -21.2167  -21.4679 S   0  0  0  0  0  0
  -27.4602  -20.4317  -22.9322 C   0  0  0  0  0  0
  -28.9810  -20.5086  -22.8840 C   0  0  0  0  0  0
  -29.6741  -21.5951  -23.3155 C   0  0  0  0  0  0
  -31.0722  -21.6961  -23.2233 N   0  0  0  0  0  0
  -31.9157  -20.7747  -22.4787 C   0  0  2  0  0  0
  -33.1080  -21.4145  -23.2258 C   0  0  2  0  0  0
  -32.1040  -22.5492  -23.5636 C   0  0  0  0  0  0
  -32.1290  -23.6843  -23.9904 O   0  0  0  0  0  0
  -33.5003  -20.6354  -24.4023 N   0  0  0  0  0  0
  -34.3333  -21.0682  -25.3638 C   0  0  0  0  0  0
  -34.4081  -20.1677  -26.6117 C   0  0  0  0  0  0
  -33.3820  -19.0897  -26.7133 C   0  0  0  0  0  0
  -33.7400  -17.8162  -27.0959 C   0  0  0  0  0  0
  -32.3689  -16.7496  -27.2159 S   0  0  0  0  0  0
  -31.3386  -18.0872  -26.7368 C   0  0  0  0  0  0
  -29.9697  -17.9493  -26.6164 N   0  0  0  0  0  0
  -31.9965  -19.2286  -26.5327 N   0  0  0  0  0  0
  -35.2547  -20.2511  -27.5672 N   0  0  0  0  0  0
  -36.2189  -21.2578  -27.4268 O   0  0  0  0  0  0
  -36.9876  -21.2940  -28.6157 C   0  0  0  0  0  0
  -34.9605  -22.1223  -25.2550 O   0  0  0  0  0  0
  -31.3629  -19.0665  -22.7794 S   0  0  0  0  0  0
  -29.6486  -19.2931  -22.2423 C   0  0  0  0  0  0
  -28.9691  -22.8268  -23.9651 C   0  0  0  0  0  0
  -28.7691  -22.7495  -25.2012 O   0  5  0  0  0  0
  -28.7340  -23.8051  -23.2135 O   0  0  0  0  0  0
  -25.2521  -22.5196  -23.4327 N   0  0  0  0  0  0
  -24.3074  -23.4464  -23.8657 C   0  0  0  0  0  0
  -23.6605  -24.3898  -22.8064 C   0  0  0  0  0  0
  -22.7797  -25.1497  -23.2134 O   0  0  0  0  0  0
  -24.1121  -24.3496  -21.5270 N   0  5  0  0  0  0
  -23.9685  -23.5794  -25.0428 O   0  0  0  0  0  0
  -26.2529  -23.1679  -19.4865 H   0  0  0  0  0  0
  -24.6250  -23.7316  -19.1295 H   0  0  0  0  0  0
  -24.8939  -22.0277  -19.4619 H   0  0  0  0  0  0
  -27.0982  -20.8664  -23.8610 H   0  0  0  0  0  0
  -27.1367  -19.3910  -22.9665 H   0  0  0  0  0  0
  -31.8995  -21.0080  -21.4104 H   0  0  0  0  0  0
  -33.9306  -21.6850  -22.5629 H   0  0  0  0  0  0
  -32.9822  -19.7795  -24.5532 H   0  0  0  0  0  0
  -34.7282  -17.4430  -27.3198 H   0  0  0  0  0  0
  -29.4796  -18.5959  -26.0148 H   0  0  0  0  0  0
  -29.6132  -17.0022  -26.5504 H   0  0  0  0  0  0
  -37.7613  -22.0560  -28.5254 H   0  0  0  0  0  0
  -37.4798  -20.3384  -28.8034 H   0  0  0  0  0  0
  -36.3701  -21.5478  -29.4785 H   0  0  0  0  0  0
  -29.6141  -19.3967  -21.1567 H   0  0  0  0  0  0
  -29.1131  -18.3790  -22.4968 H   0  0  0  0  0  0
  1  2  1  0  0  0
  1 37  1  0  0  0
  1 38  1  0  0  0
  1 39  1  0  0  0
  2 35  1  0  0  0
  2  3  1  0  0  0
  3  4  1  0  0  0
  3 31  2  0  0  0
  4  5  1  0  0  0
  5  6  1  0  0  0
  5 40  1  0  0  0
  5 41  1  0  0  0
  6 27  1  0  0  0
  6  7  2  0  0  0
  7  8  1  0  0  0
  7 28  1  0  0  0
  8 11  1  0  0  0
  8  9  1  0  0  0
  9 10  1  0  0  0
  9 26  1  0  0  0
  9 42  1  0  0  0
 10 11  1  0  0  0
 10 13  1  0  0  0
 10 43  1  0  0  0
 11 12  2  0  0  0
 13 14  1  0  0  0
 13 44  1  0  0  0
 14 15  1  0  0  0
 14 25  2  0  0  0
 15 16  1  0  0  0
 15 22  2  3  0  0
 16 21  1  0  0  0
 16 17  2  0  0  0
 17 18  1  0  0  0
 17 45  1  0  0  0
 18 19  1  0  0  0
 19 20  1  0  0  0
 19 21  2  0  0  0
 20 46  1  0  0  0
 20 47  1  0  0  0
 22 23  1  0  0  0
 23 24  1  0  0  0
 24 48  1  0  0  0
 24 49  1  0  0  0
 24 50  1  0  0  0
 26 27  1  0  0  0
 27 51  1  0  0  0
 27 52  1  0  0  0
 28 29  1  0  0  0
 28 30  2  0  0  0
 31 32  1  0  0  0
 32 33  1  0  0  0
 32 36  2  0  0  0
 33 34  2  0  0  0
 33 35  1  0  0  0
M  CHG  2  29  -1  35  -1
M  END
> <s_m_entry_id>
27696

> <s_m_entry_name>
data_maestro.22

> <s_m_Source_Path>
C:\Users\olshana1\Git\GramNeg-Accumulation\Gram Negative Permeation - OmpF

> <s_m_Source_File>
data_maestro.csv

> <i_m_Source_File_Index>
22

> <s_m_job_name>
glide-dock_Nicaido_neutral

> <s_i_glide_gridfile>
3POX-grid

> <i_i_glide_lignum>
29

> <i_i_glide_rotatable_bonds>
9

> <r_i_docking_score>
-4.08588711777717

> <r_i_glide_ligand_efficiency>
-0.113496864382699

> <r_i_glide_ligand_efficiency_sa>
-0.374758388721681

> <r_i_glide_ligand_efficiency_ln>
-0.891430181185951

> <r_i_glide_gscore>
-4.08588711777717

> <r_i_glide_lipo>
0

> <r_i_glide_hbond>
-0.761997495326201

> <r_i_glide_metal>
0

> <r_i_glide_rewards>
0.00232564267481867

> <r_i_glide_evdw>
-29.1567840576172

> <r_i_glide_ecoul>
-12.7671928405762

> <r_i_glide_erotb>
0.472124986767549

> <r_i_glide_esite>
-0.425422122926048

> <r_i_glide_emodel>
-68.0927955858541

> <r_i_glide_energy>
-41.9239768981934

> <r_i_glide_einternal>
5.87589740753174

> <i_i_glide_confnum>
29

> <i_i_glide_posenum>
192

> <r_i_glide_eff_state_penalty>
0

> <r_glide_res:A132_vdw>
-1.37820151624108

> <r_glide_res:A132_coul>
-70.6990942476164

> <r_glide_res:A132_hbond>
-0.0282146485576866

> <r_glide_res:A132_dist>
2.37814871680062

> <r_glide_res:A132_Eint>
-72.1055104124152

> <r_glide_res:A117_vdw>
-3.43191654022984

> <r_glide_res:A117_coul>
38.0107170209299

> <r_glide_res:A117_hbond>
0

> <r_glide_res:A117_dist>
2.46465225443123

> <r_glide_res:A117_Eint>
34.5788004807

> <r_glide_res:A113_vdw>
-2.75425559707921

> <r_glide_res:A113_coul>
38.1350961183869

> <r_glide_res:A113_hbond>
0

> <r_glide_res:A113_dist>
2.84620375885

> <r_glide_res:A113_Eint>
35.3808405213077

> <r_glide_res:A82_vdw>
-2.09046529575807

> <r_glide_res:A82_coul>
-79.1450952011199

> <r_glide_res:A82_hbond>
-0.262287354477387

> <r_glide_res:A82_dist>
2.03730006788373

> <r_glide_res:A82_Eint>
-81.4978478513553

> <r_glide_res:A42_vdw>
1.55493644071326

> <r_glide_res:A42_coul>
-77.5180696825907

> <r_glide_res:A42_hbond>
-0.311495492291127

> <r_glide_res:A42_dist>
1.68800442902047

> <r_glide_res:A42_Eint>
-76.2746287341685

> <r_glide_res:A16_vdw>
-2.01071409783392

> <r_glide_res:A16_coul>
-51.0108817705245

> <r_glide_res:A16_hbond>
0

> <r_glide_res:A16_dist>
2.97260503767661

> <r_glide_res:A16_Eint>
-53.0215958683584

> <s_m_source_file>
ligprep_Nicaido_neutral.maegz

> <i_m_source_file_index>
22

> <i_lp_mmshare_version>
58128

> <i_f3d_flags>
0

> <s_lp_Force_Field>
S-OPLS

> <r_lp_Energy>
111.196812

> <b_lp_Chiralities_Consistent>
1

> <s_lp_Variant>
Ceftriaxone-2

> <s_epik_input>
W09IXWMobjEpYyg9TyluYyhuMVtDSDNdKVNbQ0gyXUMoPUMyQyg9TylbT0hdKVtDSDJdU1tDQEhdKE4yMylbQ0BIXShDMz1PKVtOSF1DKD1PKS9DKD1OL09bQ0gzXSljNFtjSF1zYyhuNClbTkgyXQ==

> <s_epik_cmdline>
J2VwaWtfcHl0aG9uJywgJy1waHQnLCAnMC4wJywgJy1waCcsICc3LjQnLCAnLW50JywgJy1tYScsICc1MDAnLCAnLWltYWUnLCAnPGluZmlsZS5tYWU+JywgJy1vbWFlJywgJzxvdXRmaWxlLm1hZT4n

> <r_lp_tautomer_probability>
1

> <r_epik_Ionization_Penalty>
  0.0014

> <r_epik_Ionization_Penalty_Charging>
  0.0010

> <r_epik_Ionization_Penalty_Neutral>
  0.0004

> <r_epik_State_Penalty>
  0.0000

> <r_epik_Charging_Adjusted_Penalty>
0.000994184415634904

> <i_epik_Tot_Q>
-2

> <i_epik_Tot_abs_Q>
2

> <s_epik_Chemistry_Notes>
This compound has an imine and may undergo hydrolysis. This compound contains an acetal/aminal-like group ( X-CH(R)-Y where X, Y are N, S, or O) that may be acid/base labile, releasing an aldehyde.

> <s_m_subgroup_title>
glide-dock_Nicaido_neutral_pv1

> <s_m_subgroupid>
glide-dock_Nicaido_neutral_pv1

> <b_m_subgroup_collapsed>
0

$$$$
Cefotaxime
                    3D
 Schrodinger Suite 2022-2.
 46 48  0  0  1  0            999 V2000
  -31.7354  -16.7980  -28.0150 C   0  0  0  0  0  0
  -30.5383  -17.6764  -27.6796 C   0  0  0  0  0  0
  -30.2451  -17.6389  -26.3748 O   0  0  0  0  0  0
  -29.1409  -18.3555  -25.8440 C   0  0  0  0  0  0
  -29.5356  -19.0751  -24.5589 C   0  0  0  0  0  0
  -29.4156  -20.4192  -24.3835 C   0  0  0  0  0  0
  -29.7947  -21.0586  -23.1920 N   0  0  0  0  0  0
  -30.7777  -20.4728  -22.3057 C   0  0  1  0  0  0
  -30.6421  -21.7278  -21.4230 C   0  0  2  0  0  0
  -29.8289  -22.3170  -22.6158 C   0  0  0  0  0  0
  -29.4119  -23.3995  -22.9794 O   0  0  0  0  0  0
  -31.9736  -22.3003  -21.2135 N   0  0  0  0  0  0
  -32.3363  -23.5941  -21.2514 C   0  0  0  0  0  0
  -33.8454  -23.7786  -21.2134 C   0  0  0  0  0  0
  -34.2929  -25.1458  -21.6267 C   0  0  0  0  0  0
  -35.2172  -25.8583  -20.8961 C   0  0  0  0  0  0
  -35.5173  -27.4427  -21.5547 S   0  0  0  0  0  0
  -34.3690  -27.0784  -22.8297 C   0  0  0  0  0  0
  -34.0337  -28.0110  -23.7944 N   0  0  0  0  0  0
  -33.8428  -25.8575  -22.7526 N   0  0  0  0  0  0
  -34.6031  -22.8247  -20.8194 N   0  0  0  0  0  0
  -35.9728  -23.1152  -20.8619 O   0  0  0  0  0  0
  -36.6504  -22.0523  -20.2132 C   0  0  0  0  0  0
  -31.5413  -24.5319  -21.3294 O   0  0  0  0  0  0
  -30.1787  -18.8301  -21.8316 S   0  0  0  0  0  0
  -30.1268  -18.1348  -23.5038 C   0  0  0  0  0  0
  -28.8379  -21.3657  -25.4776 C   0  0  0  0  0  0
  -27.7614  -21.9495  -25.2134 O   0  5  0  0  0  0
  -29.5686  -21.5494  -26.4791 O   0  0  0  0  0  0
  -29.9696  -18.3462  -28.5451 O   0  0  0  0  0  0
  -31.5701  -15.7868  -27.6413 H   0  0  0  0  0  0
  -31.8943  -16.7521  -29.0918 H   0  0  0  0  0  0
  -32.6364  -17.1937  -27.5465 H   0  0  0  0  0  0
  -28.3565  -17.6362  -25.6136 H   0  0  0  0  0  0
  -28.7166  -19.0432  -26.5727 H   0  0  0  0  0  0
  -31.7431  -20.3960  -22.8124 H   0  0  0  0  0  0
  -30.0792  -21.5473  -20.5057 H   0  0  0  0  0  0
  -32.7169  -21.6339  -21.0514 H   0  0  0  0  0  0
  -35.7342  -25.5368  -20.0065 H   0  0  0  0  0  0
  -33.5277  -27.7225  -24.6208 H   0  0  0  0  0  0
  -34.5967  -28.8405  -23.9068 H   0  0  0  0  0  0
  -37.7244  -22.2384  -20.2262 H   0  0  0  0  0  0
  -36.3406  -21.9611  -19.1699 H   0  0  0  0  0  0
  -36.4692  -21.0986  -20.7120 H   0  0  0  0  0  0
  -29.5690  -17.2017  -23.4644 H   0  0  0  0  0  0
  -31.1427  -17.8735  -23.8015 H   0  0  0  0  0  0
  1  2  1  0  0  0
  1 31  1  0  0  0
  1 32  1  0  0  0
  1 33  1  0  0  0
  2  3  1  0  0  0
  2 30  2  0  0  0
  3  4  1  0  0  0
  4  5  1  0  0  0
  4 34  1  0  0  0
  4 35  1  0  0  0
  5 26  1  0  0  0
  5  6  2  0  0  0
  6  7  1  0  0  0
  6 27  1  0  0  0
  7 10  1  0  0  0
  7  8  1  0  0  0
  8  9  1  0  0  0
  8 25  1  0  0  0
  8 36  1  0  0  0
  9 10  1  0  0  0
  9 12  1  0  0  0
  9 37  1  0  0  0
 10 11  2  0  0  0
 12 13  1  0  0  0
 12 38  1  0  0  0
 13 14  1  0  0  0
 13 24  2  0  0  0
 14 15  1  0  0  0
 14 21  2  3  0  0
 15 20  1  0  0  0
 15 16  2  0  0  0
 16 17  1  0  0  0
 16 39  1  0  0  0
 17 18  1  0  0  0
 18 19  1  0  0  0
 18 20  2  0  0  0
 19 40  1  0  0  0
 19 41  1  0  0  0
 21 22  1  0  0  0
 22 23  1  0  0  0
 23 42  1  0  0  0
 23 43  1  0  0  0
 23 44  1  0  0  0
 25 26  1  0  0  0
 26 45  1  0  0  0
 26 46  1  0  0  0
 27 28  1  0  0  0
 27 29  2  0  0  0
M  CHG  1  28  -1
M  END
> <s_m_entry_id>
27697

> <s_m_entry_name>
data_maestro.6

> <s_m_Source_Path>
C:\Users\olshana1\Git\GramNeg-Accumulation\Gram Negative Permeation - OmpF

> <s_m_Source_File>
data_maestro.csv

> <i_m_Source_File_Index>
6

> <s_m_job_name>
glide-dock_Nicaido_neutral

> <s_i_glide_gridfile>
3POX-grid

> <i_i_glide_lignum>
7

> <i_i_glide_rotatable_bonds>
9

> <r_i_docking_score>
-4.08552720111233

> <r_i_glide_ligand_efficiency>
-0.136184240037078

> <r_i_glide_ligand_efficiency_sa>
-0.423156096962084

> <r_i_glide_ligand_efficiency_ln>
-0.928276295476979

> <r_i_glide_gscore>
-4.08552720111233

> <r_i_glide_lipo>
-0.0357293068864973

> <r_i_glide_hbond>
-0.654928416838699

> <r_i_glide_metal>
0

> <r_i_glide_rewards>
-0.306642109101173

> <r_i_glide_evdw>
-33.2899475097656

> <r_i_glide_ecoul>
-10.3276109695435

> <r_i_glide_erotb>
0.680611118548691

> <r_i_glide_esite>
-0.555199465914848

> <r_i_glide_emodel>
-57.7560528008432

> <r_i_glide_energy>
-43.6175584793091

> <r_i_glide_einternal>
15.8113374710083

> <i_i_glide_confnum>
238

> <i_i_glide_posenum>
136

> <r_i_glide_eff_state_penalty>
0

> <r_glide_res:A132_vdw>
-1.08252549308078

> <r_glide_res:A132_coul>
-27.8362829881413

> <r_glide_res:A132_hbond>
0

> <r_glide_res:A132_dist>
3.58271668212931

> <r_glide_res:A132_Eint>
-28.9188084812221

> <r_glide_res:A117_vdw>
-4.41416840801002

> <r_glide_res:A117_coul>
25.4570617758325

> <r_glide_res:A117_hbond>
0

> <r_glide_res:A117_dist>
2.06074305703065

> <r_glide_res:A117_Eint>
21.0428933678225

> <r_glide_res:A113_vdw>
-4.80031760874121

> <r_glide_res:A113_coul>
16.7837296819624

> <r_glide_res:A113_hbond>
0

> <r_glide_res:A113_dist>
2.61826011416764

> <r_glide_res:A113_Eint>
11.9834120732212

> <r_glide_res:A82_vdw>
-1.89891162160243

> <r_glide_res:A82_coul>
-40.3407715767112

> <r_glide_res:A82_hbond>
-0.0634272018843394

> <r_glide_res:A82_dist>
2.34063356427236

> <r_glide_res:A82_Eint>
-42.3031104001979

> <r_glide_res:A42_vdw>
1.08765277486933

> <r_glide_res:A42_coul>
-55.0469234762455

> <r_glide_res:A42_hbond>
-0.280299815636159

> <r_glide_res:A42_dist>
1.68479479072358

> <r_glide_res:A42_Eint>
-54.2395705170123

> <r_glide_res:A16_vdw>
-0.00330613228003596

> <r_glide_res:A16_coul>
-52.3767875885532

> <r_glide_res:A16_hbond>
-0.3112013993182

> <r_glide_res:A16_dist>
1.83472981180894

> <r_glide_res:A16_Eint>
-52.6912951201514

> <s_m_source_file>
ligprep_Nicaido_neutral.maegz

> <i_m_source_file_index>
6

> <i_lp_mmshare_version>
58128

> <i_f3d_flags>
0

> <s_lp_Force_Field>
S-OPLS

> <r_lp_Energy>
53.728996

> <b_lp_Chiralities_Consistent>
1

> <s_lp_Variant>
Cefotaxime-1

> <s_epik_input>
W0NIM11DKD1PKU9bQ0gyXUMoPUMxQyg9TylbT0hdKVtDSDJdU1tDQEBIXShOMTIpW0NASF0oQzI9TylbTkhdQyg9TykvQyg9Ti9PW0NIM10pYzNbY0hdc2MobjMpW05IMl0=

> <s_epik_cmdline>
J2VwaWtfcHl0aG9uJywgJy1waHQnLCAnMC4wJywgJy1waCcsICc3LjQnLCAnLW50JywgJy1tYScsICc1MDAnLCAnLWltYWUnLCAnPGluZmlsZS5tYWU+JywgJy1vbWFlJywgJzxvdXRmaWxlLm1hZT4n

> <r_lp_tautomer_probability>
1

> <r_epik_Ionization_Penalty>
  0.0004

> <r_epik_Ionization_Penalty_Charging>
  0.0000

> <r_epik_Ionization_Penalty_Neutral>
  0.0004

> <r_epik_State_Penalty>
  0.0000

> <r_epik_Charging_Adjusted_Penalty>
5.45682606121274e-06

> <i_epik_Tot_Q>
-1

> <i_epik_Tot_abs_Q>
1

> <s_epik_Chemistry_Notes>
This compound has an ester and may undergo hydrolysis at high or low pH. This compound has an imine and may undergo hydrolysis. This compound contains an acetal/aminal-like group ( X-CH(R)-Y where X, Y are N, S, or O) that may be acid/base labile, releasing an aldehyde.

> <s_m_subgroup_title>
glide-dock_Nicaido_neutral_pv1

> <s_m_subgroupid>
glide-dock_Nicaido_neutral_pv1

> <b_m_subgroup_collapsed>
0

$$$$
Penicillin N
                    3D
 Schrodinger Suite 2022-2.
 44 45  0  0  1  0            999 V2000
  -24.3702  -22.8396  -17.4527 C   0  0  0  0  0  0
  -22.8393  -23.0096  -17.4077 C   0  0  0  0  0  0
  -22.3652  -22.7822  -15.9604 C   0  0  0  0  0  0
  -22.4490  -24.4032  -18.0231 C   0  0  2  0  0  0
  -21.2767  -25.1681  -17.3630 C   0  0  0  0  0  0
  -20.1183  -25.0354  -17.8177 O   0  5  0  0  0  0
  -21.5687  -25.9320  -16.4135 O   0  0  0  0  0  0
  -22.1463  -24.0755  -19.3999 N   0  0  0  0  0  0
  -21.5055  -22.8427  -19.8129 C   0  0  1  0  0  0
  -22.1434  -23.0339  -21.1988 C   0  0  2  0  0  0
  -23.1006  -21.9787  -21.5293 N   0  0  0  0  0  0
  -23.9267  -22.0072  -22.5864 C   0  0  0  0  0  0
  -24.7854  -20.7629  -22.8395 C   0  0  0  0  0  0
  -26.2958  -21.0671  -22.8207 C   0  0  0  0  0  0
  -26.8890  -21.1150  -21.3981 C   0  0  0  0  0  0
  -28.2497  -21.8463  -21.3031 C   0  0  2  0  0  0
  -28.9022  -21.5488  -20.0128 N   0  3  0  0  0  0
  -28.0478  -23.3661  -21.4061 C   0  0  0  0  0  0
  -28.3690  -23.9452  -22.4685 O   0  5  0  0  0  0
  -27.5537  -23.9436  -20.4120 O   0  0  0  0  0  0
  -24.0010  -22.9698  -23.3525 O   0  0  0  0  0  0
  -22.7707  -24.3008  -20.5972 C   0  0  0  0  0  0
  -23.5652  -25.1481  -20.9484 O   0  0  0  0  0  0
  -22.0917  -21.7282  -18.4949 S   0  0  0  0  0  0
  -24.8681  -23.5708  -16.8152 H   0  0  0  0  0  0
  -24.6708  -21.8498  -17.1068 H   0  0  0  0  0  0
  -24.7587  -22.9638  -18.4643 H   0  0  0  0  0  0
  -22.7672  -23.5440  -15.2958 H   0  0  0  0  0  0
  -21.2777  -22.7992  -15.8791 H   0  0  0  0  0  0
  -22.6978  -21.8151  -15.5818 H   0  0  0  0  0  0
  -23.3085  -25.0754  -18.0043 H   0  0  0  0  0  0
  -20.4163  -22.9117  -19.8199 H   0  0  0  0  0  0
  -21.3994  -23.2141  -21.9757 H   0  0  0  0  0  0
  -23.1104  -21.1677  -20.9265 H   0  0  0  0  0  0
  -24.5113  -20.3808  -23.8236 H   0  0  0  0  0  0
  -24.5451  -19.9686  -22.1310 H   0  0  0  0  0  0
  -26.4834  -22.0031  -23.3474 H   0  0  0  0  0  0
  -26.8231  -20.3027  -23.3931 H   0  0  0  0  0  0
  -26.9939  -20.0897  -21.0390 H   0  0  0  0  0  0
  -26.1771  -21.5854  -20.7169 H   0  0  0  0  0  0
  -28.9158  -21.5020  -22.0960 H   0  0  0  0  0  0
  -29.7766  -22.0501  -19.9260 H   0  0  0  0  0  0
  -28.2943  -21.8453  -19.2633 H   0  0  0  0  0  0
  -29.0968  -20.5609  -19.9155 H   0  0  0  0  0  0
  1  2  1  0  0  0
  1 25  1  0  0  0
  1 26  1  0  0  0
  1 27  1  0  0  0
  2 24  1  0  0  0
  2  3  1  0  0  0
  2  4  1  0  0  0
  3 28  1  0  0  0
  3 29  1  0  0  0
  3 30  1  0  0  0
  4  5  1  0  0  0
  4  8  1  0  0  0
  4 31  1  0  0  0
  5  6  1  0  0  0
  5  7  2  0  0  0
  8 22  1  0  0  0
  8  9  1  0  0  0
  9 10  1  0  0  0
  9 24  1  0  0  0
  9 32  1  0  0  0
 10 11  1  0  0  0
 10 22  1  0  0  0
 10 33  1  0  0  0
 11 12  1  0  0  0
 11 34  1  0  0  0
 12 13  1  0  0  0
 12 21  2  0  0  0
 13 14  1  0  0  0
 13 35  1  0  0  0
 13 36  1  0  0  0
 14 15  1  0  0  0
 14 37  1  0  0  0
 14 38  1  0  0  0
 15 16  1  0  0  0
 15 39  1  0  0  0
 15 40  1  0  0  0
 16 17  1  0  0  0
 16 18  1  0  0  0
 16 41  1  0  0  0
 17 42  1  0  0  0
 17 43  1  0  0  0
 17 44  1  0  0  0
 18 19  1  0  0  0
 18 20  2  0  0  0
 22 23  2  0  0  0
M  CHG  3   6  -1  17   1  19  -1
M  END
> <s_m_entry_id>
27698

> <s_m_entry_name>
data_maestro.26

> <s_m_Source_Path>
C:\Users\olshana1\Git\GramNeg-Accumulation\Gram Negative Permeation - OmpF

> <s_m_Source_File>
data_maestro.csv

> <i_m_Source_File_Index>
26

> <s_m_job_name>
glide-dock_Nicaido_neutral

> <s_i_glide_gridfile>
3POX-grid

> <i_i_glide_lignum>
33

> <i_i_glide_rotatable_bonds>
8

> <r_i_docking_score>
-4.08012847805904

> <r_i_glide_ligand_efficiency>
-0.17000535325246

> <r_i_glide_ligand_efficiency_sa>
-0.490380294837155

> <r_i_glide_ligand_efficiency_ln>
-0.97656196969565

> <r_i_glide_gscore>
-4.08012847805904

> <r_i_glide_lipo>
0

> <r_i_glide_hbond>
-0.779137294738586

> <r_i_glide_metal>
0

> <r_i_glide_rewards>
-0.965435880489508

> <r_i_glide_evdw>
-13.4934587478638

> <r_i_glide_ecoul>
-14.6923446655273

> <r_i_glide_erotb>
0.894795809723686

> <r_i_glide_esite>
-0.351826475332346

> <r_i_glide_emodel>
-50.8358647232001

> <r_i_glide_energy>
-28.1858034133911

> <r_i_glide_einternal>
3.27490496635437

> <i_i_glide_confnum>
138

> <i_i_glide_posenum>
275

> <r_i_glide_eff_state_penalty>
0

> <r_glide_res:A132_vdw>
0.286919847004321

> <r_glide_res:A132_coul>
-48.6258173831365

> <r_glide_res:A132_hbond>
-0.222132630025019

> <r_glide_res:A132_dist>
1.88263029329997

> <r_glide_res:A132_Eint>
-48.5610301661572

> <r_glide_res:A117_vdw>
-0.753272660145723

> <r_glide_res:A117_coul>
9.66483306838662

> <r_glide_res:A117_hbond>
0

> <r_glide_res:A117_dist>
3.67529332582613

> <r_glide_res:A117_Eint>
8.91156040824089

> <r_glide_res:A113_vdw>
-0.0687096338983968

> <r_glide_res:A113_coul>
-13.4900125431915

> <r_glide_res:A113_hbond>
-0.0929417721564793

> <r_glide_res:A113_dist>
2.29215934370728

> <r_glide_res:A113_Eint>
-13.6516639492464

> <r_glide_res:A82_vdw>
-0.884273393264621

> <r_glide_res:A82_coul>
-41.0174203625312

> <r_glide_res:A82_hbond>
-0.267650030593971

> <r_glide_res:A82_dist>
2.12305810332086

> <r_glide_res:A82_Eint>
-42.1693437863898

> <r_glide_res:A42_vdw>
-0.673157166491552

> <r_glide_res:A42_coul>
-23.8506840405191

> <r_glide_res:A42_hbond>
0

> <r_glide_res:A42_dist>
3.00117414278932

> <r_glide_res:A42_Eint>
-24.5238412070106

> <r_glide_res:A16_vdw>
-0.0609640632550907

> <r_glide_res:A16_coul>
-12.5258608910597

> <r_glide_res:A16_hbond>
0

> <r_glide_res:A16_dist>
5.925716997738

> <r_glide_res:A16_Eint>
-12.5868249543148

> <s_m_source_file>
ligprep_Nicaido_neutral.maegz

> <i_m_source_file_index>
26

> <i_lp_mmshare_version>
58128

> <i_f3d_flags>
0

> <s_lp_Force_Field>
S-OPLS

> <r_lp_Energy>
12.253328

> <b_lp_Chiralities_Consistent>
1

> <s_lp_Variant>
Penicillin N-1

> <s_epik_input>
W09IXUMoPU8pW0NASF0xQyhbQ0gzXSkoW0NIM10pU1tDQEBIXShOMTIpW0NAQEhdKEMyPU8pW05IXUMoPU8pW0NIMl1bQ0gyXVtDSDJdW0NASF0oW05IMl0pQyg9TylbT0hd

> <s_epik_cmdline>
J2VwaWtfcHl0aG9uJywgJy1waHQnLCAnMC4wJywgJy1waCcsICc3LjQnLCAnLW50JywgJy1tYScsICc1MDAnLCAnLWltYWUnLCAnPGluZmlsZS5tYWU+JywgJy1vbWFlJywgJzxvdXRmaWxlLm1hZT4n

> <r_lp_tautomer_probability>
1

> <r_epik_Ionization_Penalty>
  0.0034

> <r_epik_Ionization_Penalty_Charging>
  0.0034

> <r_epik_Ionization_Penalty_Neutral>
  0.0000

> <r_epik_State_Penalty>
  0.0000

> <r_epik_Charging_Adjusted_Penalty>
0.0034368723547391

> <i_epik_Tot_Q>
-1

> <i_epik_Tot_abs_Q>
3

> <s_epik_Chemistry_Notes>
This compound contains an acetal/aminal-like group ( X-CH(R)-Y where X, Y are N, S, or O) that may be acid/base labile, releasing an aldehyde.

> <s_m_subgroup_title>
glide-dock_Nicaido_neutral_pv1

> <s_m_subgroupid>
glide-dock_Nicaido_neutral_pv1

> <b_m_subgroup_collapsed>
0

$$$$
Nocardicin B
                    3D
 Schrodinger Suite 2022-2.
 59 61  0  0  1  0            999 V2000
  -33.6627  -28.3077  -23.7384 O   0  0  0  0  0  0
  -34.8120  -27.9241  -23.7254 C   0  0  0  0  0  0
  -35.7772  -27.3845  -22.6548 C   0  0  2  0  0  0
  -36.7765  -27.2241  -23.8028 C   0  0  0  0  0  0
  -35.7687  -27.8033  -24.7108 N   0  0  0  0  0  0
  -35.7523  -28.1331  -26.1365 C   0  0  2  0  0  0
  -35.4382  -26.9192  -26.9742 C   0  0  0  0  0  0
  -34.4549  -27.0080  -27.9864 C   0  0  0  0  0  0
  -34.1049  -25.9055  -28.7897 C   0  0  0  0  0  0
  -34.7431  -24.6691  -28.6012 C   0  0  0  0  0  0
  -35.7253  -24.5471  -27.6039 C   0  0  0  0  0  0
  -36.0622  -25.6568  -26.8050 C   0  0  0  0  0  0
  -34.4127  -23.6020  -29.3870 O   0  0  0  0  0  0
  -37.1036  -28.7123  -26.6300 C   0  0  0  0  0  0
  -38.0755  -27.9468  -26.8167 O   0  5  0  0  0  0
  -37.1675  -29.9495  -26.8151 O   0  0  0  0  0  0
  -35.3980  -26.1164  -22.0097 N   0  0  0  0  0  0
  -34.8073  -25.0295  -22.5466 C   0  0  0  0  0  0
  -34.5576  -23.9171  -21.5377 C   0  0  0  0  0  0
  -33.2373  -23.2566  -21.7261 C   0  0  0  0  0  0
  -33.1466  -21.8462  -21.7497 C   0  0  0  0  0  0
  -31.9124  -21.2030  -21.9688 C   0  0  0  0  0  0
  -30.7302  -21.9586  -22.1607 C   0  0  0  0  0  0
  -30.8142  -23.3636  -22.0980 C   0  0  0  0  0  0
  -32.0461  -24.0066  -21.8793 C   0  0  0  0  0  0
  -29.4821  -21.4236  -22.4088 O   0  0  0  0  0  0
  -29.3299  -20.0106  -22.4911 C   0  0  0  0  0  0
  -29.7652  -19.4281  -23.8599 C   0  0  0  0  0  0
  -28.8168  -19.6672  -25.0625 C   0  0  2  0  0  0
  -28.7629  -21.1440  -25.5186 C   0  0  0  0  0  0
  -29.5688  -21.5090  -26.4069 O   0  5  0  0  0  0
  -27.8929  -21.8968  -25.0197 O   0  0  0  0  0  0
  -27.4571  -19.1495  -24.7900 N   0  3  0  0  0  0
  -35.3492  -23.4995  -20.6214 N   0  0  0  0  0  0
  -36.6469  -24.1145  -20.6735 O   0  0  0  0  0  0
  -34.4720  -24.9172  -23.7263 O   0  0  0  0  0  0
  -36.1053  -28.1393  -21.9393 H   0  0  0  0  0  0
  -37.6710  -27.8400  -23.6886 H   0  0  0  0  0  0
  -37.0473  -26.1921  -24.0185 H   0  0  0  0  0  0
  -34.9877  -28.8984  -26.2857 H   0  0  0  0  0  0
  -33.9541  -27.9492  -28.1494 H   0  0  0  0  0  0
  -33.3499  -26.0171  -29.5535 H   0  0  0  0  0  0
  -36.2316  -23.6072  -27.4418 H   0  0  0  0  0  0
  -36.8340  -25.5372  -26.0641 H   0  0  0  0  0  0
  -35.0515  -22.9048  -29.3510 H   0  0  0  0  0  0
  -35.5985  -26.0507  -21.0194 H   0  0  0  0  0  0
  -34.0330  -21.2452  -21.6079 H   0  0  0  0  0  0
  -31.9053  -20.1235  -21.9849 H   0  0  0  0  0  0
  -29.9173  -23.9510  -22.2190 H   0  0  0  0  0  0
  -32.0729  -25.0858  -21.8365 H   0  0  0  0  0  0
  -28.2807  -19.7819  -22.3085 H   0  0  0  0  0  0
  -29.8551  -19.5166  -21.6713 H   0  0  0  0  0  0
  -29.8769  -18.3481  -23.7339 H   0  0  0  0  0  0
  -30.7650  -19.7858  -24.1096 H   0  0  0  0  0  0
  -29.1999  -19.0829  -25.8981 H   0  0  0  0  0  0
  -26.8881  -19.2206  -25.6203 H   0  0  0  0  0  0
  -27.4963  -18.1798  -24.4971 H   0  0  0  0  0  0
  -36.7565  -24.2959  -21.5970 H   0  0  0  0  0  0
  -27.0410  -19.7049  -24.0596 H   0  0  0  0  0  0
  1  2  2  0  0  0
  2  5  1  0  0  0
  2  3  1  0  0  0
  3  4  1  0  0  0
  3 17  1  0  0  0
  3 37  1  0  0  0
  4  5  1  0  0  0
  4 38  1  0  0  0
  4 39  1  0  0  0
  5  6  1  0  0  0
  6  7  1  0  0  0
  6 14  1  0  0  0
  6 40  1  0  0  0
  7 12  1  0  0  0
  7  8  2  0  0  0
  8  9  1  0  0  0
  8 41  1  0  0  0
  9 10  2  0  0  0
  9 42  1  0  0  0
 10 11  1  0  0  0
 10 13  1  0  0  0
 11 12  2  0  0  0
 11 43  1  0  0  0
 12 44  1  0  0  0
 13 45  1  0  0  0
 14 15  1  0  0  0
 14 16  2  0  0  0
 17 18  1  0  0  0
 17 46  1  0  0  0
 18 19  1  0  0  0
 18 36  2  0  0  0
 19 20  1  0  0  0
 19 34  2  3  0  0
 20 25  1  0  0  0
 20 21  2  0  0  0
 21 22  1  0  0  0
 21 47  1  0  0  0
 22 23  2  0  0  0
 22 48  1  0  0  0
 23 24  1  0  0  0
 23 26  1  0  0  0
 24 25  2  0  0  0
 24 49  1  0  0  0
 25 50  1  0  0  0
 26 27  1  0  0  0
 27 28  1  0  0  0
 27 51  1  0  0  0
 27 52  1  0  0  0
 28 29  1  0  0  0
 28 53  1  0  0  0
 28 54  1  0  0  0
 29 30  1  0  0  0
 29 33  1  0  0  0
 29 55  1  0  0  0
 30 31  1  0  0  0
 30 32  2  0  0  0
 33 56  1  0  0  0
 33 57  1  0  0  0
 33 59  1  0  0  0
 34 35  1  0  0  0
 35 58  1  0  0  0
M  CHG  3  15  -1  31  -1  33   1
M  END
> <s_m_entry_id>
27699

> <s_m_entry_name>
data_maestro.29

> <s_m_Source_Path>
C:\Users\olshana1\Git\GramNeg-Accumulation\Gram Negative Permeation - OmpF

> <s_m_Source_File>
data_maestro.csv

> <i_m_Source_File_Index>
29

> <s_m_job_name>
glide-dock_Nicaido_neutral

> <s_i_glide_gridfile>
3POX-grid

> <i_i_glide_lignum>
37

> <i_i_glide_rotatable_bonds>
14

> <r_i_docking_score>
-4.07627894957697

> <r_i_glide_ligand_efficiency>
-0.113229970821582

> <r_i_glide_ligand_efficiency_sa>
-0.373877125600728

> <r_i_glide_ligand_efficiency_ln>
-0.889333938467374

> <r_i_glide_gscore>
-4.07627894957697

> <r_i_glide_lipo>
-0.011083920108493

> <r_i_glide_hbond>
-0.815635006012907

> <r_i_glide_metal>
0

> <r_i_glide_rewards>
-0.0498102429394204

> <r_i_glide_evdw>
-25.5317249298096

> <r_i_glide_ecoul>
-16.8112545013428

> <r_i_glide_erotb>
0.900147327125679

> <r_i_glide_esite>
-0.301622685949934

> <r_i_glide_emodel>
-60.6720178972388

> <r_i_glide_energy>
-42.3429794311523

> <r_i_glide_einternal>
12.3397016525269

> <i_i_glide_confnum>
92

> <i_i_glide_posenum>
392

> <r_i_glide_eff_state_penalty>
0

> <r_glide_res:A132_vdw>
-0.73379123787609

> <r_glide_res:A132_coul>
-19.3978336076727

> <r_glide_res:A132_hbond>
0

> <r_glide_res:A132_dist>
2.97630148144755

> <r_glide_res:A132_Eint>
-20.1316248455488

> <r_glide_res:A117_vdw>
-2.42819762888224

> <r_glide_res:A117_coul>
-14.0751354099037

> <r_glide_res:A117_hbond>
0

> <r_glide_res:A117_dist>
2.41751809132045

> <r_glide_res:A117_Eint>
-16.5033330387859

> <r_glide_res:A113_vdw>
-3.17761530865232

> <r_glide_res:A113_coul>
13.8532470358438

> <r_glide_res:A113_hbond>
0

> <r_glide_res:A113_dist>
3.20658633133087

> <r_glide_res:A113_Eint>
10.6756317271915

> <r_glide_res:A82_vdw>
-1.6027060943244

> <r_glide_res:A82_coul>
-30.5149870446211

> <r_glide_res:A82_hbond>
0

> <r_glide_res:A82_dist>
2.21047969545741

> <r_glide_res:A82_Eint>
-32.1176931389455

> <r_glide_res:A42_vdw>
-0.326186132763107

> <r_glide_res:A42_coul>
-42.3637968678384

> <r_glide_res:A42_hbond>
-0.269182795225833

> <r_glide_res:A42_dist>
1.90056578723022

> <r_glide_res:A42_Eint>
-42.9591657958273

> <r_glide_res:A16_vdw>
-0.588871468867012

> <r_glide_res:A16_coul>
-37.2894271524358

> <r_glide_res:A16_hbond>
-0.2

> <r_glide_res:A16_dist>
1.89166521285286

> <r_glide_res:A16_Eint>
-38.0782986213028

> <s_m_source_file>
ligprep_Nicaido_neutral.maegz

> <i_m_source_file_index>
29

> <i_lp_mmshare_version>
58128

> <i_f3d_flags>
0

> <s_lp_Force_Field>
S-OPLS

> <r_lp_Energy>
65.715273

> <b_lp_Chiralities_Consistent>
1

> <s_lp_Variant>
Nocardicin B-2

> <s_epik_input>
W2NIXTFbY0hdYyhbT0hdKVtjSF1bY0hdYzFbQ0BIXShDKD1PKVtPSF0pTjJbQ0gyXVtDQEBIXShDMj1PKVtOSF1DKD1PKS9DKD1OL1tPSF0pYzNbY0hdW2NIXWMoW2NIXVtjSF0zKU9bQ0gyXVtDSDJdW0NAQEhdKFtOSDJdKUMoPU8pW09IXQ==

> <s_epik_cmdline>
J2VwaWtfcHl0aG9uJywgJy1waHQnLCAnMC4wJywgJy1waCcsICc3LjQnLCAnLW50JywgJy1tYScsICc1MDAnLCAnLWltYWUnLCAnPGluZmlsZS5tYWU+JywgJy1vbWFlJywgJzxvdXRmaWxlLm1hZT4n

> <r_lp_tautomer_probability>
1

> <r_epik_Ionization_Penalty>
  0.0116

> <r_epik_Ionization_Penalty_Charging>
  0.0086

> <r_epik_Ionization_Penalty_Neutral>
  0.0030

> <r_epik_State_Penalty>
  0.0000

> <r_epik_Charging_Adjusted_Penalty>
0.0085560600321308

> <i_epik_Tot_Q>
-1

> <i_epik_Tot_abs_Q>
3

> <s_epik_Chemistry_Notes>
This compound has an imine and may undergo hydrolysis.

> <s_m_subgroup_title>
glide-dock_Nicaido_neutral_pv1

> <s_m_subgroupid>
glide-dock_Nicaido_neutral_pv1

> <b_m_subgroup_collapsed>
0

$$$$
Cefotaxime
                    3D
 Schrodinger Suite 2022-2.
 46 48  0  0  1  0            999 V2000
  -21.3637  -20.3558  -27.7126 C   0  0  0  0  0  0
  -21.1711  -21.1243  -26.4134 C   0  0  0  0  0  0
  -22.3002  -21.7236  -26.0008 O   0  0  0  0  0  0
  -22.3416  -22.4087  -24.7555 C   0  0  0  0  0  0
  -23.6211  -22.0644  -24.0027 C   0  0  0  0  0  0
  -24.5073  -22.9934  -23.5473 C   0  0  0  0  0  0
  -25.7003  -22.6160  -22.8964 N   0  0  0  0  0  0
  -26.2779  -21.3001  -23.1130 C   0  0  1  0  0  0
  -27.4538  -21.7347  -22.2177 C   0  0  2  0  0  0
  -26.8249  -23.1497  -22.2800 C   0  0  0  0  0  0
  -27.1683  -24.2826  -22.0134 O   0  0  0  0  0  0
  -28.7715  -21.6030  -22.8669 N   0  0  0  0  0  0
  -29.1540  -22.0759  -24.0744 C   0  0  0  0  0  0
  -30.5666  -21.7265  -24.5014 C   0  0  0  0  0  0
  -31.4336  -21.1238  -23.4571 C   0  0  0  0  0  0
  -31.4982  -19.7644  -23.2491 C   0  0  0  0  0  0
  -32.6028  -19.3611  -21.9603 S   0  0  0  0  0  0
  -32.9275  -21.0780  -21.7551 C   0  0  0  0  0  0
  -33.8198  -21.5495  -20.8134 N   0  0  0  0  0  0
  -32.2436  -21.8605  -22.5873 N   0  0  0  0  0  0
  -30.9570  -22.0070  -25.6842 N   0  0  0  0  0  0
  -32.2819  -21.6151  -25.9274 O   0  0  0  0  0  0
  -32.8982  -22.6099  -26.7262 C   0  0  0  0  0  0
  -28.4290  -22.7494  -24.8124 O   0  0  0  0  0  0
  -25.0458  -20.0836  -22.5982 S   0  0  0  0  0  0
  -23.8017  -20.5517  -23.8279 C   0  0  0  0  0  0
  -24.2342  -24.5331  -23.6706 C   0  0  0  0  0  0
  -24.3434  -25.0344  -24.8132 O   0  5  0  0  0  0
  -23.9681  -25.1457  -22.6141 O   0  0  0  0  0  0
  -20.0799  -21.1576  -25.8446 O   0  0  0  0  0  0
  -22.1281  -19.5878  -27.5927 H   0  0  0  0  0  0
  -20.4338  -19.8736  -28.0126 H   0  0  0  0  0  0
  -21.6759  -21.0371  -28.5032 H   0  0  0  0  0  0
  -21.5035  -22.1288  -24.1153 H   0  0  0  0  0  0
  -22.2453  -23.4760  -24.9467 H   0  0  0  0  0  0
  -26.5313  -21.1503  -24.1638 H   0  0  0  0  0  0
  -27.4131  -21.2692  -21.2320 H   0  0  0  0  0  0
  -29.4536  -21.0739  -22.3388 H   0  0  0  0  0  0
  -30.9754  -18.9741  -23.7693 H   0  0  0  0  0  0
  -33.7295  -22.5099  -20.5155 H   0  0  0  0  0  0
  -34.0915  -20.9100  -20.0709 H   0  0  0  0  0  0
  -33.9247  -22.3166  -26.9468 H   0  0  0  0  0  0
  -32.3782  -22.7499  -27.6737 H   0  0  0  0  0  0
  -32.9322  -23.5668  -26.2025 H   0  0  0  0  0  0
  -22.8539  -20.0977  -23.5371 H   0  0  0  0  0  0
  -24.0822  -20.1147  -24.7868 H   0  0  0  0  0  0
  1  2  1  0  0  0
  1 31  1  0  0  0
  1 32  1  0  0  0
  1 33  1  0  0  0
  2  3  1  0  0  0
  2 30  2  0  0  0
  3  4  1  0  0  0
  4  5  1  0  0  0
  4 34  1  0  0  0
  4 35  1  0  0  0
  5 26  1  0  0  0
  5  6  2  0  0  0
  6  7  1  0  0  0
  6 27  1  0  0  0
  7 10  1  0  0  0
  7  8  1  0  0  0
  8  9  1  0  0  0
  8 25  1  0  0  0
  8 36  1  0  0  0
  9 10  1  0  0  0
  9 12  1  0  0  0
  9 37  1  0  0  0
 10 11  2  0  0  0
 12 13  1  0  0  0
 12 38  1  0  0  0
 13 14  1  0  0  0
 13 24  2  0  0  0
 14 15  1  0  0  0
 14 21  2  3  0  0
 15 20  1  0  0  0
 15 16  2  0  0  0
 16 17  1  0  0  0
 16 39  1  0  0  0
 17 18  1  0  0  0
 18 19  1  0  0  0
 18 20  2  0  0  0
 19 40  1  0  0  0
 19 41  1  0  0  0
 21 22  1  0  0  0
 22 23  1  0  0  0
 23 42  1  0  0  0
 23 43  1  0  0  0
 23 44  1  0  0  0
 25 26  1  0  0  0
 26 45  1  0  0  0
 26 46  1  0  0  0
 27 28  1  0  0  0
 27 29  2  0  0  0
M  CHG  1  28  -1
M  END
> <s_m_entry_id>
27700

> <s_m_entry_name>
data_maestro.6

> <s_m_Source_Path>
C:\Users\olshana1\Git\GramNeg-Accumulation\Gram Negative Permeation - OmpF

> <s_m_Source_File>
data_maestro.csv

> <i_m_Source_File_Index>
6

> <s_m_job_name>
glide-dock_Nicaido_neutral

> <s_i_glide_gridfile>
3POX-grid

> <i_i_glide_lignum>
7

> <i_i_glide_rotatable_bonds>
9

> <r_i_docking_score>
-4.07494370254285

> <r_i_glide_ligand_efficiency>
-0.135831456751428

> <r_i_glide_ligand_efficiency_sa>
-0.4220599172706

> <r_i_glide_ligand_efficiency_ln>
-0.92587160928554

> <r_i_glide_gscore>
-4.07494370254285

> <r_i_glide_lipo>
-0.199941583140477

> <r_i_glide_hbond>
-0.921243907423742

> <r_i_glide_metal>
0

> <r_i_glide_rewards>
-0.0602764649116542

> <r_i_glide_evdw>
-27.0973243713379

> <r_i_glide_ecoul>
-10.4610786437988

> <r_i_glide_erotb>
0.680611118548691

> <r_i_glide_esite>
-0.650064850478944

> <r_i_glide_emodel>
-54.777931248241

> <r_i_glide_energy>
-37.5584030151367

> <r_i_glide_einternal>
7.05989742279053

> <i_i_glide_confnum>
256

> <i_i_glide_posenum>
376

> <r_i_glide_eff_state_penalty>
0

> <r_glide_res:A132_vdw>
-0.237137420455643

> <r_glide_res:A132_coul>
-41.3393952066767

> <r_glide_res:A132_hbond>
-0.0784735501460511

> <r_glide_res:A132_dist>
2.18369650887215

> <r_glide_res:A132_Eint>
-41.6550061772784

> <r_glide_res:A117_vdw>
-2.36141581965448

> <r_glide_res:A117_coul>
16.898474968401

> <r_glide_res:A117_hbond>
0

> <r_glide_res:A117_dist>
3.39127833078544

> <r_glide_res:A117_Eint>
14.5370591487465

> <r_glide_res:A113_vdw>
-3.3048800509995

> <r_glide_res:A113_coul>
10.2600030994928

> <r_glide_res:A113_hbond>
-0.32

> <r_glide_res:A113_dist>
1.94900813491543

> <r_glide_res:A113_Eint>
6.63512304849333

> <r_glide_res:A82_vdw>
-1.99284906039163

> <r_glide_res:A82_coul>
-46.7505189377931

> <r_glide_res:A82_hbond>
-0.256119594481036

> <r_glide_res:A82_dist>
1.90346836472952

> <r_glide_res:A82_Eint>
-48.9994875926657

> <r_glide_res:A42_vdw>
-2.49207540809972

> <r_glide_res:A42_coul>
-40.4331817625015

> <r_glide_res:A42_hbond>
-0.266650762796654

> <r_glide_res:A42_dist>
2.08016416593254

> <r_glide_res:A42_Eint>
-43.1919079333978

> <r_glide_res:A16_vdw>
-1.53318153221204

> <r_glide_res:A16_coul>
-21.986516911893

> <r_glide_res:A16_hbond>
0

> <r_glide_res:A16_dist>
2.11208321471894

> <r_glide_res:A16_Eint>
-23.519698444105

> <s_m_source_file>
ligprep_Nicaido_neutral.maegz

> <i_m_source_file_index>
6

> <i_lp_mmshare_version>
58128

> <i_f3d_flags>
0

> <s_lp_Force_Field>
S-OPLS

> <r_lp_Energy>
53.728996

> <b_lp_Chiralities_Consistent>
1

> <s_lp_Variant>
Cefotaxime-1

> <s_epik_input>
W0NIM11DKD1PKU9bQ0gyXUMoPUMxQyg9TylbT0hdKVtDSDJdU1tDQEBIXShOMTIpW0NASF0oQzI9TylbTkhdQyg9TykvQyg9Ti9PW0NIM10pYzNbY0hdc2MobjMpW05IMl0=

> <s_epik_cmdline>
J2VwaWtfcHl0aG9uJywgJy1waHQnLCAnMC4wJywgJy1waCcsICc3LjQnLCAnLW50JywgJy1tYScsICc1MDAnLCAnLWltYWUnLCAnPGluZmlsZS5tYWU+JywgJy1vbWFlJywgJzxvdXRmaWxlLm1hZT4n

> <r_lp_tautomer_probability>
1

> <r_epik_Ionization_Penalty>
  0.0004

> <r_epik_Ionization_Penalty_Charging>
  0.0000

> <r_epik_Ionization_Penalty_Neutral>
  0.0004

> <r_epik_State_Penalty>
  0.0000

> <r_epik_Charging_Adjusted_Penalty>
5.45682606121274e-06

> <i_epik_Tot_Q>
-1

> <i_epik_Tot_abs_Q>
1

> <s_epik_Chemistry_Notes>
This compound has an ester and may undergo hydrolysis at high or low pH. This compound has an imine and may undergo hydrolysis. This compound contains an acetal/aminal-like group ( X-CH(R)-Y where X, Y are N, S, or O) that may be acid/base labile, releasing an aldehyde.

> <s_m_subgroup_title>
glide-dock_Nicaido_neutral_pv1

> <s_m_subgroupid>
glide-dock_Nicaido_neutral_pv1

> <b_m_subgroup_collapsed>
0

$$$$
Ampicillin
                    3D
 Schrodinger Suite 2022-2.
 42 44  0  0  1  0            999 V2000
  -29.2254  -19.2588  -25.2988 C   0  0  0  0  0  0
  -30.4009  -19.5796  -24.3474 C   0  0  0  0  0  0
  -30.6924  -21.1164  -24.1901 C   0  0  2  0  0  0
  -29.8658  -21.5130  -23.0539 N   0  0  0  0  0  0
  -29.5538  -20.6245  -21.9472 C   0  0  2  0  0  0
  -29.8920  -19.0021  -22.6867 S   0  0  0  0  0  0
  -28.1817  -21.3028  -21.9048 C   0  0  2  0  0  0
  -28.8693  -22.4071  -22.7311 C   0  0  0  0  0  0
  -28.6165  -23.5497  -23.0612 O   0  0  0  0  0  0
  -27.7717  -21.7092  -20.5682 N   0  0  0  0  0  0
  -26.7209  -22.5099  -20.3212 C   0  0  0  0  0  0
  -26.3198  -22.7204  -18.8552 C   0  0  2  0  0  0
  -27.0940  -23.9267  -18.4426 C   0  0  0  0  0  0
  -28.4631  -23.8651  -18.0863 C   0  0  0  0  0  0
  -29.1690  -25.0147  -17.6892 C   0  0  0  0  0  0
  -28.5173  -26.2548  -17.6135 C   0  0  0  0  0  0
  -27.1729  -26.3499  -18.0072 C   0  0  0  0  0  0
  -26.4699  -25.1956  -18.4134 C   0  0  0  0  0  0
  -26.5491  -21.5463  -18.0134 N   0  0  0  0  0  0
  -26.0876  -23.0873  -21.2082 O   0  0  0  0  0  0
  -30.5317  -21.9354  -25.4943 C   0  0  0  0  0  0
  -31.3595  -21.7343  -26.4115 O   0  5  0  0  0  0
  -29.5689  -22.7231  -25.6123 O   0  0  0  0  0  0
  -31.6547  -18.8073  -24.7958 C   0  0  0  0  0  0
  -29.4635  -19.4923  -26.3357 H   0  0  0  0  0  0
  -28.9700  -18.1987  -25.2615 H   0  0  0  0  0  0
  -28.3296  -19.8160  -25.0235 H   0  0  0  0  0  0
  -31.7225  -21.2536  -23.8590 H   0  0  0  0  0  0
  -30.1800  -20.7994  -21.0678 H   0  0  0  0  0  0
  -27.4220  -20.7368  -22.4480 H   0  0  0  0  0  0
  -28.2822  -21.3163  -19.7881 H   0  0  0  0  0  0
  -25.2496  -22.9307  -18.8331 H   0  0  0  0  0  0
  -28.9914  -22.9217  -18.1189 H   0  0  0  0  0  0
  -30.2149  -24.9396  -17.4449 H   0  0  0  0  0  0
  -29.0565  -27.1296  -17.2834 H   0  0  0  0  0  0
  -26.7034  -27.3171  -17.9693 H   0  0  0  0  0  0
  -25.4274  -25.2806  -18.6813 H   0  0  0  0  0  0
  -26.8311  -20.7265  -18.5341 H   0  0  0  0  0  0
  -27.2438  -21.7031  -17.2937 H   0  0  0  0  0  0
  -31.9847  -19.1229  -25.7850 H   0  0  0  0  0  0
  -32.4833  -18.9627  -24.1037 H   0  0  0  0  0  0
  -31.4614  -17.7345  -24.8374 H   0  0  0  0  0  0
  1  2  1  0  0  0
  1 25  1  0  0  0
  1 26  1  0  0  0
  1 27  1  0  0  0
  2  6  1  0  0  0
  2  3  1  0  0  0
  2 24  1  0  0  0
  3  4  1  0  0  0
  3 21  1  0  0  0
  3 28  1  0  0  0
  4  8  1  0  0  0
  4  5  1  0  0  0
  5  6  1  0  0  0
  5  7  1  0  0  0
  5 29  1  0  0  0
  7  8  1  0  0  0
  7 10  1  0  0  0
  7 30  1  0  0  0
  8  9  2  0  0  0
 10 11  1  0  0  0
 10 31  1  0  0  0
 11 12  1  0  0  0
 11 20  2  0  0  0
 12 13  1  0  0  0
 12 19  1  0  0  0
 12 32  1  0  0  0
 13 18  1  0  0  0
 13 14  2  0  0  0
 14 15  1  0  0  0
 14 33  1  0  0  0
 15 16  2  0  0  0
 15 34  1  0  0  0
 16 17  1  0  0  0
 16 35  1  0  0  0
 17 18  2  0  0  0
 17 36  1  0  0  0
 18 37  1  0  0  0
 19 38  1  0  0  0
 19 39  1  0  0  0
 21 22  1  0  0  0
 21 23  2  0  0  0
 24 40  1  0  0  0
 24 41  1  0  0  0
 24 42  1  0  0  0
M  CHG  1  22  -1
M  END
> <s_m_entry_id>
27701

> <s_m_entry_name>
data_maestro.18

> <s_m_Source_Path>
C:\Users\olshana1\Git\GramNeg-Accumulation\Gram Negative Permeation - OmpF

> <s_m_Source_File>
data_maestro.csv

> <i_m_Source_File_Index>
18

> <s_m_job_name>
glide-dock_Nicaido_neutral

> <s_i_glide_gridfile>
3POX-grid

> <i_i_glide_lignum>
23

> <i_i_glide_rotatable_bonds>
5

> <r_i_docking_score>
-4.06428402771829

> <r_i_glide_ligand_efficiency>
-0.169345167821595

> <r_i_glide_ligand_efficiency_sa>
-0.488475990531196

> <r_i_glide_ligand_efficiency_ln>
-0.972769665674656

> <r_i_glide_gscore>
-4.17018402771829

> <r_i_glide_lipo>
-0.0824551841787313

> <r_i_glide_hbond>
-0.416095737201249

> <r_i_glide_metal>
0

> <r_i_glide_rewards>
-1.03203731563696

> <r_i_glide_evdw>
-24.4682731628418

> <r_i_glide_ecoul>
-10.116548538208

> <r_i_glide_erotb>
0.470487855572594

> <r_i_glide_esite>
-0.369187707400649

> <r_i_glide_emodel>
-53.1387824440022

> <r_i_glide_energy>
-34.5848217010498

> <r_i_glide_einternal>
1.70911860466003

> <i_i_glide_confnum>
8

> <i_i_glide_posenum>
314

> <r_i_glide_eff_state_penalty>
0.1059

> <r_glide_res:A132_vdw>
-1.8136226727611

> <r_glide_res:A132_coul>
-28.0345395555829

> <r_glide_res:A132_hbond>
0

> <r_glide_res:A132_dist>
2.29904058923034

> <r_glide_res:A132_Eint>
-29.848162228344

> <r_glide_res:A117_vdw>
-2.70706114974488

> <r_glide_res:A117_coul>
22.3112536624699

> <r_glide_res:A117_hbond>
0

> <r_glide_res:A117_dist>
2.51204049084944

> <r_glide_res:A117_Eint>
19.604192512725

> <r_glide_res:A113_vdw>
-3.34420815665284

> <r_glide_res:A113_coul>
11.3526472548484

> <r_glide_res:A113_hbond>
0

> <r_glide_res:A113_dist>
2.43674814012531

> <r_glide_res:A113_Eint>
8.00843909819553

> <r_glide_res:A82_vdw>
-1.8141042549559

> <r_glide_res:A82_coul>
-40.2987175086261

> <r_glide_res:A82_hbond>
-0.113818372138752

> <r_glide_res:A82_dist>
2.30336230095086

> <r_glide_res:A82_Eint>
-42.2266401357207

> <r_glide_res:A42_vdw>
5.79018883876055

> <r_glide_res:A42_coul>
-54.3326821699508

> <r_glide_res:A42_hbond>
-0.144477494991396

> <r_glide_res:A42_dist>
1.48895498998279

> <r_glide_res:A42_Eint>
-48.6869708261817

> <r_glide_res:A16_vdw>
0.436969036144316

> <r_glide_res:A16_coul>
-49.9686454726493

> <r_glide_res:A16_hbond>
-0.0787094838891486

> <r_glide_res:A16_dist>
2.09385698680688

> <r_glide_res:A16_Eint>
-49.6103859203941

> <s_m_source_file>
ligprep_Nicaido_neutral.maegz

> <i_m_source_file_index>
18

> <i_lp_mmshare_version>
58128

> <i_f3d_flags>
0

> <s_lp_Force_Field>
S-OPLS

> <r_lp_Energy>
33.736216

> <b_lp_Chiralities_Consistent>
1

> <s_lp_Variant>
Ampicillin-1

> <s_epik_input>
W09IXUMoPU8pW0NAQEhdMUMoW0NIM10pKFtDSDNdKVNbQ0BASF0oTjEyKVtDQEhdKEMyPU8pW05IXUMoPU8pW0NAQEhdKFtOSDJdKWMzW2NIXVtjSF1bY0hdW2NIXVtjSF0z

> <s_epik_cmdline>
J2VwaWtfcHl0aG9uJywgJy1waHQnLCAnMC4wJywgJy1waCcsICc3LjQnLCAnLW50JywgJy1tYScsICc1MDAnLCAnLWltYWUnLCAnPGluZmlsZS5tYWU+JywgJy1vbWFlJywgJzxvdXRmaWxlLm1hZT4n

> <r_epik_Ionization_Penalty>
  0.1060

> <r_epik_Ionization_Penalty_Charging>
  0.0000

> <r_epik_Ionization_Penalty_Neutral>
  0.1059

> <r_epik_State_Penalty>
  0.1059

> <r_epik_Charging_Adjusted_Penalty>
0.105949346496876

> <i_epik_Tot_Q>
-1

> <i_epik_Tot_abs_Q>
1

> <s_epik_Chemistry_Notes>
This compound contains an acetal/aminal-like group ( X-CH(R)-Y where X, Y are N, S, or O) that may be acid/base labile, releasing an aldehyde.

> <s_m_subgroup_title>
glide-dock_Nicaido_neutral_pv1

> <s_m_subgroupid>
glide-dock_Nicaido_neutral_pv1

> <b_m_subgroup_collapsed>
0

$$$$
Cefotaxime
                    3D
 Schrodinger Suite 2022-2.
 46 48  0  0  1  0            999 V2000
  -28.3462  -22.7370  -17.8346 C   0  0  0  0  0  0
  -27.9901  -22.7523  -19.3152 C   0  0  0  0  0  0
  -27.8466  -21.5098  -19.8155 O   0  0  0  0  0  0
  -27.6034  -21.2804  -21.1988 C   0  0  0  0  0  0
  -28.9015  -21.0763  -21.9823 C   0  0  0  0  0  0
  -29.2613  -21.8198  -23.0611 C   0  0  0  0  0  0
  -30.4423  -21.5942  -23.7976 N   0  0  0  0  0  0
  -31.2911  -20.4211  -23.6598 C   0  0  1  0  0  0
  -32.3512  -21.2645  -24.3995 C   0  0  2  0  0  0
  -31.1185  -22.0489  -24.9169 C   0  0  0  0  0  0
  -30.8048  -22.7366  -25.8678 O   0  0  0  0  0  0
  -33.0607  -20.4992  -25.4182 N   0  0  0  0  0  0
  -33.8227  -21.0457  -26.3823 C   0  0  0  0  0  0
  -34.3669  -20.0475  -27.4159 C   0  0  0  0  0  0
  -33.5529  -18.8091  -27.5976 C   0  0  0  0  0  0
  -34.1355  -17.5948  -27.8882 C   0  0  0  0  0  0
  -32.9616  -16.3086  -28.0119 S   0  0  0  0  0  0
  -31.7019  -17.4885  -27.6926 C   0  0  0  0  0  0
  -30.3682  -17.1491  -27.6130 N   0  0  0  0  0  0
  -32.1537  -18.7287  -27.5399 N   0  0  0  0  0  0
  -35.4174  -20.2065  -28.1262 N   0  0  0  0  0  0
  -36.1800  -21.3341  -27.7838 O   0  0  0  0  0  0
  -36.7792  -21.8427  -28.9617 C   0  0  0  0  0  0
  -34.0240  -22.2587  -26.4593 O   0  0  0  0  0  0
  -31.4773  -19.9948  -21.9112 S   0  0  0  0  0  0
  -29.7145  -19.8822  -21.4950 C   0  0  0  0  0  0
  -28.3482  -22.9410  -23.6325 C   0  0  0  0  0  0
  -28.1151  -23.9351  -22.9007 O   0  5  0  0  0  0
  -27.9690  -22.7623  -24.8130 O   0  0  0  0  0  0
  -27.8387  -23.8156  -19.9235 O   0  0  0  0  0  0
  -28.7686  -21.7707  -17.5566 H   0  0  0  0  0  0
  -29.0838  -23.5086  -17.6126 H   0  0  0  0  0  0
  -27.4596  -22.9130  -17.2248 H   0  0  0  0  0  0
  -26.9783  -22.0716  -21.6102 H   0  0  0  0  0  0
  -27.0188  -20.3645  -21.2854 H   0  0  0  0  0  0
  -30.8970  -19.5756  -24.2313 H   0  0  0  0  0  0
  -33.0058  -21.8178  -23.7224 H   0  0  0  0  0  0
  -32.9188  -19.4988  -25.4204 H   0  0  0  0  0  0
  -35.1850  -17.3755  -28.0163 H   0  0  0  0  0  0
  -29.7407  -17.7868  -27.1469 H   0  0  0  0  0  0
  -30.1500  -16.1754  -27.4238 H   0  0  0  0  0  0
  -37.4938  -22.6217  -28.6976 H   0  0  0  0  0  0
  -37.3137  -21.0703  -29.5176 H   0  0  0  0  0  0
  -36.0294  -22.2948  -29.6134 H   0  0  0  0  0  0
  -29.5942  -19.7621  -20.4184 H   0  0  0  0  0  0
  -29.3019  -18.9794  -21.9466 H   0  0  0  0  0  0
  1  2  1  0  0  0
  1 31  1  0  0  0
  1 32  1  0  0  0
  1 33  1  0  0  0
  2  3  1  0  0  0
  2 30  2  0  0  0
  3  4  1  0  0  0
  4  5  1  0  0  0
  4 34  1  0  0  0
  4 35  1  0  0  0
  5 26  1  0  0  0
  5  6  2  0  0  0
  6  7  1  0  0  0
  6 27  1  0  0  0
  7 10  1  0  0  0
  7  8  1  0  0  0
  8  9  1  0  0  0
  8 25  1  0  0  0
  8 36  1  0  0  0
  9 10  1  0  0  0
  9 12  1  0  0  0
  9 37  1  0  0  0
 10 11  2  0  0  0
 12 13  1  0  0  0
 12 38  1  0  0  0
 13 14  1  0  0  0
 13 24  2  0  0  0
 14 15  1  0  0  0
 14 21  2  3  0  0
 15 20  1  0  0  0
 15 16  2  0  0  0
 16 17  1  0  0  0
 16 39  1  0  0  0
 17 18  1  0  0  0
 18 19  1  0  0  0
 18 20  2  0  0  0
 19 40  1  0  0  0
 19 41  1  0  0  0
 21 22  1  0  0  0
 22 23  1  0  0  0
 23 42  1  0  0  0
 23 43  1  0  0  0
 23 44  1  0  0  0
 25 26  1  0  0  0
 26 45  1  0  0  0
 26 46  1  0  0  0
 27 28  1  0  0  0
 27 29  2  0  0  0
M  CHG  1  28  -1
M  END
> <s_m_entry_id>
27702

> <s_m_entry_name>
data_maestro.6

> <s_m_Source_Path>
C:\Users\olshana1\Git\GramNeg-Accumulation\Gram Negative Permeation - OmpF

> <s_m_Source_File>
data_maestro.csv

> <i_m_Source_File_Index>
6

> <s_m_job_name>
glide-dock_Nicaido_neutral

> <s_i_glide_gridfile>
3POX-grid

> <i_i_glide_lignum>
8

> <i_i_glide_rotatable_bonds>
9

> <r_i_docking_score>
-4.05332772279055

> <r_i_glide_ligand_efficiency>
-0.135110924093018

> <r_i_glide_ligand_efficiency_sa>
-0.419821054775326

> <r_i_glide_ligand_efficiency_ln>
-0.920960223160854

> <r_i_glide_gscore>
-4.05332772279055

> <r_i_glide_lipo>
-0.019468952570866

> <r_i_glide_hbond>
-0.966516675169221

> <r_i_glide_metal>
0

> <r_i_glide_rewards>
-0.0487996028248225

> <r_i_glide_evdw>
-26.8179111480713

> <r_i_glide_ecoul>
-12.51780128479

> <r_i_glide_erotb>
0.680611118548691

> <r_i_glide_esite>
-0.480587860652257

> <r_i_glide_emodel>
-58.4488907454417

> <r_i_glide_energy>
-39.3357124328613

> <r_i_glide_einternal>
2.46365809440613

> <i_i_glide_confnum>
166

> <i_i_glide_posenum>
191

> <r_i_glide_eff_state_penalty>
0

> <r_glide_res:A132_vdw>
-1.46547137260688

> <r_glide_res:A132_coul>
-39.0035412569651

> <r_glide_res:A132_hbond>
-0.16

> <r_glide_res:A132_dist>
2.00699019700548

> <r_glide_res:A132_Eint>
-40.629012629572

> <r_glide_res:A117_vdw>
-1.98225700537729

> <r_glide_res:A117_coul>
18.5755879216478

> <r_glide_res:A117_hbond>
0

> <r_glide_res:A117_dist>
3.08192497248433

> <r_glide_res:A117_Eint>
16.5933309162705

> <r_glide_res:A113_vdw>
-2.76033796042808

> <r_glide_res:A113_coul>
23.9153994989376

> <r_glide_res:A113_hbond>
0

> <r_glide_res:A113_dist>
2.18801548244875

> <r_glide_res:A113_Eint>
21.1550615385095

> <r_glide_res:A82_vdw>
0.47368523670311

> <r_glide_res:A82_coul>
-51.8212344427698

> <r_glide_res:A82_hbond>
-0.263674213622721

> <r_glide_res:A82_dist>
1.78023719460612

> <r_glide_res:A82_Eint>
-51.6112234196894

> <r_glide_res:A42_vdw>
1.35033288703649

> <r_glide_res:A42_coul>
-53.5314382882329

> <r_glide_res:A42_hbond>
-0.3756212039547

> <r_glide_res:A42_dist>
1.76437655436601

> <r_glide_res:A42_Eint>
-52.5567266051511

> <r_glide_res:A16_vdw>
-2.39835035461817

> <r_glide_res:A16_coul>
-33.7697170062049

> <r_glide_res:A16_hbond>
0

> <r_glide_res:A16_dist>
2.72298746683256

> <r_glide_res:A16_Eint>
-36.1680673608231

> <s_m_source_file>
ligprep_Nicaido_neutral.maegz

> <i_m_source_file_index>
6

> <i_lp_mmshare_version>
58128

> <i_f3d_flags>
0

> <s_lp_Force_Field>
S-OPLS

> <r_lp_Energy>
51.702138

> <b_lp_Chiralities_Consistent>
1

> <s_lp_Variant>
Cefotaxime-2

> <s_epik_input>
W0NIM11DKD1PKU9bQ0gyXUMoPUMxQyg9TylbT0hdKVtDSDJdU1tDQEBIXShOMTIpW0NASF0oQzI9TylbTkhdQyg9TykvQyg9Ti9PW0NIM10pYzNbY0hdc2MobjMpW05IMl0=

> <s_epik_cmdline>
J2VwaWtfcHl0aG9uJywgJy1waHQnLCAnMC4wJywgJy1waCcsICc3LjQnLCAnLW50JywgJy1tYScsICc1MDAnLCAnLWltYWUnLCAnPGluZmlsZS5tYWU+JywgJy1vbWFlJywgJzxvdXRmaWxlLm1hZT4n

> <r_lp_tautomer_probability>
1

> <r_epik_Ionization_Penalty>
  0.0004

> <r_epik_Ionization_Penalty_Charging>
  0.0000

> <r_epik_Ionization_Penalty_Neutral>
  0.0004

> <r_epik_State_Penalty>
  0.0000

> <r_epik_Charging_Adjusted_Penalty>
5.45682606121274e-06

> <i_epik_Tot_Q>
-1

> <i_epik_Tot_abs_Q>
1

> <s_epik_Chemistry_Notes>
This compound has an ester and may undergo hydrolysis at high or low pH. This compound has an imine and may undergo hydrolysis. This compound contains an acetal/aminal-like group ( X-CH(R)-Y where X, Y are N, S, or O) that may be acid/base labile, releasing an aldehyde.

> <s_m_subgroup_title>
glide-dock_Nicaido_neutral_pv1

> <s_m_subgroupid>
glide-dock_Nicaido_neutral_pv1

> <b_m_subgroup_collapsed>
0

$$$$
Cephalothin
                    3D
 Schrodinger Suite 2022-2.
 41 43  0  0  1  0            999 V2000
  -18.4416  -22.2384  -25.0621 C   0  0  0  0  0  0
  -19.6142  -23.1318  -25.4377 C   0  0  0  0  0  0
  -20.7469  -22.4357  -25.6163 O   0  0  0  0  0  0
  -21.9553  -23.0742  -26.0122 C   0  0  0  0  0  0
  -23.1272  -22.5079  -25.2247 C   0  0  0  0  0  0
  -23.9078  -23.2461  -24.3889 C   0  0  0  0  0  0
  -24.9824  -22.6712  -23.6774 N   0  0  0  0  0  0
  -25.6146  -21.4259  -24.0829 C   0  0  1  0  0  0
  -26.4600  -21.5174  -22.8011 C   0  0  2  0  0  0
  -25.9076  -22.9560  -22.6851 C   0  0  0  0  0  0
  -26.1614  -23.9509  -22.0435 O   0  0  0  0  0  0
  -27.9076  -21.3920  -23.0304 N   0  0  0  0  0  0
  -28.7260  -22.1493  -23.7856 C   0  0  0  0  0  0
  -30.1886  -21.7099  -23.8615 C   0  0  0  0  0  0
  -30.3181  -20.2614  -24.2100 C   0  0  0  0  0  0
  -30.9604  -19.2959  -23.4795 C   0  0  0  0  0  0
  -30.8892  -18.0067  -24.0763 C   0  0  0  0  0  0
  -30.1914  -17.9976  -25.2546 C   0  0  0  0  0  0
  -29.6125  -19.5870  -25.6629 S   0  0  0  0  0  0
  -28.3672  -23.1485  -24.4118 O   0  0  0  0  0  0
  -24.3323  -20.1652  -24.2627 S   0  0  0  0  0  0
  -23.3422  -21.0205  -25.5068 C   0  0  0  0  0  0
  -23.6740  -24.7876  -24.1885 C   0  0  0  0  0  0
  -24.3689  -25.5493  -24.8952 O   0  5  0  0  0  0
  -22.7690  -25.1456  -23.4040 O   0  0  0  0  0  0
  -19.4796  -24.3498  -25.5598 O   0  0  0  0  0  0
  -18.7527  -21.4836  -24.3407 H   0  0  0  0  0  0
  -17.6374  -22.8276  -24.6223 H   0  0  0  0  0  0
  -18.0573  -21.7366  -25.9476 H   0  0  0  0  0  0
  -21.8917  -24.1565  -25.9175 H   0  0  0  0  0  0
  -22.1342  -22.8653  -27.0664 H   0  0  0  0  0  0
  -26.1763  -21.5472  -25.0102 H   0  0  0  0  0  0
  -26.0955  -20.8411  -22.0266 H   0  0  0  0  0  0
  -28.3398  -20.5953  -22.5816 H   0  0  0  0  0  0
  -30.6597  -21.9102  -22.8986 H   0  0  0  0  0  0
  -30.7167  -22.3138  -24.5988 H   0  0  0  0  0  0
  -31.4694  -19.4633  -22.5412 H   0  0  0  0  0  0
  -31.3440  -17.1475  -23.6133 H   0  0  0  0  0  0
  -29.9724  -17.1504  -25.8920 H   0  0  0  0  0  0
  -22.3894  -20.4960  -25.5738 H   0  0  0  0  0  0
  -23.8279  -20.9182  -26.4774 H   0  0  0  0  0  0
  1  2  1  0  0  0
  1 27  1  0  0  0
  1 28  1  0  0  0
  1 29  1  0  0  0
  2  3  1  0  0  0
  2 26  2  0  0  0
  3  4  1  0  0  0
  4  5  1  0  0  0
  4 30  1  0  0  0
  4 31  1  0  0  0
  5 22  1  0  0  0
  5  6  2  0  0  0
  6  7  1  0  0  0
  6 23  1  0  0  0
  7 10  1  0  0  0
  7  8  1  0  0  0
  8  9  1  0  0  0
  8 21  1  0  0  0
  8 32  1  0  0  0
  9 10  1  0  0  0
  9 12  1  0  0  0
  9 33  1  0  0  0
 10 11  2  0  0  0
 12 13  1  0  0  0
 12 34  1  0  0  0
 13 14  1  0  0  0
 13 20  2  0  0  0
 14 15  1  0  0  0
 14 35  1  0  0  0
 14 36  1  0  0  0
 15 19  1  0  0  0
 15 16  2  0  0  0
 16 17  1  0  0  0
 16 37  1  0  0  0
 17 18  2  0  0  0
 17 38  1  0  0  0
 18 19  1  0  0  0
 18 39  1  0  0  0
 21 22  1  0  0  0
 22 40  1  0  0  0
 22 41  1  0  0  0
 23 24  1  0  0  0
 23 25  2  0  0  0
M  CHG  1  24  -1
M  END
> <s_m_entry_id>
27703

> <s_m_entry_name>
data_maestro.33

> <s_m_Source_Path>
C:\Users\olshana1\Git\GramNeg-Accumulation\Gram Negative Permeation - OmpF

> <s_m_Source_File>
data_maestro.csv

> <i_m_Source_File_Index>
33

> <s_m_job_name>
glide-dock_Nicaido_neutral

> <s_i_glide_gridfile>
3POX-grid

> <i_i_glide_lignum>
42

> <i_i_glide_rotatable_bonds>
8

> <r_i_docking_score>
-4.0387771560728

> <r_i_glide_ligand_efficiency>
-0.155337582925877

> <r_i_glide_ligand_efficiency_sa>
-0.460186978194036

> <r_i_glide_ligand_efficiency_ln>
-0.948493562794941

> <r_i_glide_gscore>
-4.0387771560728

> <r_i_glide_lipo>
-0.00555410188397369

> <r_i_glide_hbond>
-0.662051870770239

> <r_i_glide_metal>
0

> <r_i_glide_rewards>
-0.712951964331959

> <r_i_glide_evdw>
-25.533971786499

> <r_i_glide_ecoul>
-10.6873617172241

> <r_i_glide_erotb>
0.625287901339008

> <r_i_glide_esite>
-0.403704273517064

> <r_i_glide_emodel>
-54.7314741672704

> <r_i_glide_energy>
-36.2213335037231

> <r_i_glide_einternal>
5.41300249099731

> <i_i_glide_confnum>
50

> <i_i_glide_posenum>
168

> <r_i_glide_eff_state_penalty>
0

> <r_glide_res:A132_vdw>
-1.08549049406375

> <r_glide_res:A132_coul>
-37.349238290781

> <r_glide_res:A132_hbond>
-0.108963413232908

> <r_glide_res:A132_dist>
2.11379611082281

> <r_glide_res:A132_Eint>
-38.5436921980776

> <r_glide_res:A117_vdw>
-3.92427654806132

> <r_glide_res:A117_coul>
18.1506922586451

> <r_glide_res:A117_hbond>
0

> <r_glide_res:A117_dist>
2.45339883904421

> <r_glide_res:A117_Eint>
14.2264157105838

> <r_glide_res:A113_vdw>
-0.657404918819044

> <r_glide_res:A113_coul>
13.1934374185812

> <r_glide_res:A113_hbond>
0

> <r_glide_res:A113_dist>
3.94955098061886

> <r_glide_res:A113_Eint>
12.5360324997622

> <r_glide_res:A82_vdw>
-2.07644439050966

> <r_glide_res:A82_coul>
-47.4909932917782

> <r_glide_res:A82_hbond>
-0.245552168271594

> <r_glide_res:A82_dist>
1.9459828521306

> <r_glide_res:A82_Eint>
-49.8129898505595

> <r_glide_res:A42_vdw>
-3.31950207713641

> <r_glide_res:A42_coul>
-35.3682157547357

> <r_glide_res:A42_hbond>
-0.107490650826838

> <r_glide_res:A42_dist>
1.97156347462023

> <r_glide_res:A42_Eint>
-38.795208482699

> <r_glide_res:A16_vdw>
-0.89442756989895

> <r_glide_res:A16_coul>
-18.1676380266687

> <r_glide_res:A16_hbond>
0

> <r_glide_res:A16_dist>
2.99569873368733

> <r_glide_res:A16_Eint>
-19.0620655965677

> <s_m_source_file>
ligprep_Nicaido_neutral.maegz

> <i_m_source_file_index>
33

> <i_lp_mmshare_version>
58128

> <i_f3d_flags>
0

> <s_lp_Force_Field>
S-OPLS

> <r_lp_Energy>
31.39315

> <b_lp_Chiralities_Consistent>
1

> <s_lp_Variant>
Cephalothin-1

> <s_epik_input>
W0NIM11DKD1PKU9bQ0gyXUMoPUMxQyg9TylbT0hdKVtDSDJdU1tDQEBIXShOMTIpW0NASF0oQzI9TylbTkhdQyg9TylbQ0gyXWMzW2NIXVtjSF1bY0hdczM=

> <s_epik_cmdline>
J2VwaWtfcHl0aG9uJywgJy1waHQnLCAnMC4wJywgJy1waCcsICc3LjQnLCAnLW50JywgJy1tYScsICc1MDAnLCAnLWltYWUnLCAnPGluZmlsZS5tYWU+JywgJy1vbWFlJywgJzxvdXRmaWxlLm1hZT4n

> <r_lp_tautomer_probability>
1

> <r_epik_Ionization_Penalty>
  0.0000

> <r_epik_Ionization_Penalty_Charging>
  0.0000

> <r_epik_Ionization_Penalty_Neutral>
  0.0000

> <r_epik_State_Penalty>
  0.0000

> <r_epik_Charging_Adjusted_Penalty>
6.16900125885048e-06

> <i_epik_Tot_Q>
-1

> <i_epik_Tot_abs_Q>
1

> <s_epik_Chemistry_Notes>
This compound has an ester and may undergo hydrolysis at high or low pH. This compound contains an acetal/aminal-like group ( X-CH(R)-Y where X, Y are N, S, or O) that may be acid/base labile, releasing an aldehyde.

> <s_m_subgroup_title>
glide-dock_Nicaido_neutral_pv1

> <s_m_subgroupid>
glide-dock_Nicaido_neutral_pv1

> <b_m_subgroup_collapsed>
0

$$$$
LY097964
                    3D
 Schrodinger Suite 2022-2.
 40 42  0  0  1  0            999 V2000
  -24.7657  -24.9761  -17.6141 C   0  0  0  0  0  0
  -25.5682  -24.4032  -18.6247 O   0  0  0  0  0  0
  -25.2084  -23.0521  -18.7206 N   0  0  0  0  0  0
  -26.0497  -22.3000  -19.3204 C   0  0  0  0  0  0
  -25.7116  -20.8471  -19.3846 C   0  0  0  0  0  0
  -25.7453  -20.1152  -20.5543 C   0  0  0  0  0  0
  -25.1690  -18.4839  -20.3289 S   0  0  0  0  0  0
  -24.8757  -18.8606  -18.6412 C   0  0  0  0  0  0
  -24.3689  -17.9210  -17.7624 N   0  0  0  0  0  0
  -25.1847  -20.1139  -18.3102 N   0  0  0  0  0  0
  -27.3629  -22.7628  -19.9805 C   0  0  0  0  0  0
  -28.2390  -21.7810  -20.2720 N   0  0  0  0  0  0
  -29.4749  -21.9387  -21.0479 C   0  0  1  0  0  0
  -29.8120  -20.6536  -21.8344 C   0  0  1  0  0  0
  -29.9572  -21.4964  -23.0107 N   0  0  0  0  0  0
  -29.2804  -22.5722  -22.4573 C   0  0  0  0  0  0
  -28.7324  -23.5450  -22.9365 O   0  0  0  0  0  0
  -30.3671  -20.9896  -24.2657 C   0  0  0  0  0  0
  -30.0931  -21.9410  -25.4892 C   0  0  0  0  0  0
  -29.5689  -21.4398  -26.5066 O   0  5  0  0  0  0
  -30.3795  -23.1496  -25.3606 O   0  0  0  0  0  0
  -31.0187  -19.7945  -24.3831 C   0  0  0  0  0  0
  -31.3117  -18.8718  -23.2004 C   0  0  0  0  0  0
  -31.3601  -19.7322  -21.6148 S   0  0  0  0  0  0
  -31.5103  -19.1861  -25.6932 C   0  0  0  0  0  0
  -27.5730  -23.9487  -20.2643 O   0  0  0  0  0  0
  -25.1682  -25.9497  -17.3447 H   0  0  0  0  0  0
  -23.7369  -25.0984  -17.9522 H   0  0  0  0  0  0
  -24.7644  -24.3599  -16.7144 H   0  0  0  0  0  0
  -26.0608  -20.4293  -21.5390 H   0  0  0  0  0  0
  -24.4792  -18.0875  -16.7735 H   0  0  0  0  0  0
  -24.3771  -16.9473  -18.0278 H   0  0  0  0  0  0
  -28.0444  -20.8458  -19.9404 H   0  0  0  0  0  0
  -30.3188  -22.3185  -20.4679 H   0  0  0  0  0  0
  -28.9668  -19.9691  -21.9471 H   0  0  0  0  0  0
  -30.5559  -18.0848  -23.1617 H   0  0  0  0  0  0
  -32.2767  -18.3806  -23.3301 H   0  0  0  0  0  0
  -30.9563  -18.2706  -25.9122 H   0  0  0  0  0  0
  -31.4340  -19.8445  -26.5549 H   0  0  0  0  0  0
  -32.5665  -18.9247  -25.6022 H   0  0  0  0  0  0
  1  2  1  0  0  0
  1 27  1  0  0  0
  1 28  1  0  0  0
  1 29  1  0  0  0
  2  3  1  0  0  0
  3  4  2  3  0  0
  4  5  1  0  0  0
  4 11  1  0  0  0
  5 10  1  0  0  0
  5  6  2  0  0  0
  6  7  1  0  0  0
  6 30  1  0  0  0
  7  8  1  0  0  0
  8  9  1  0  0  0
  8 10  2  0  0  0
  9 31  1  0  0  0
  9 32  1  0  0  0
 11 12  1  0  0  0
 11 26  2  0  0  0
 12 13  1  0  0  0
 12 33  1  0  0  0
 13 16  1  0  0  0
 13 14  1  0  0  0
 13 34  1  0  0  0
 14 24  1  0  0  0
 14 15  1  0  0  0
 14 35  1  0  0  0
 15 16  1  0  0  0
 15 18  1  0  0  0
 16 17  2  0  0  0
 18 19  1  0  0  0
 18 22  2  0  0  0
 19 20  1  0  0  0
 19 21  2  0  0  0
 22 23  1  0  0  0
 22 25  1  0  0  0
 23 24  1  0  0  0
 23 36  1  0  0  0
 23 37  1  0  0  0
 25 38  1  0  0  0
 25 39  1  0  0  0
 25 40  1  0  0  0
M  CHG  1  20  -1
M  END
> <s_m_entry_id>
27704

> <s_m_entry_name>
data_maestro.7

> <s_m_Source_Path>
C:\Users\olshana1\Git\GramNeg-Accumulation\Gram Negative Permeation - OmpF

> <s_m_Source_File>
data_maestro.csv

> <i_m_Source_File_Index>
7

> <s_m_job_name>
glide-dock_Nicaido_neutral

> <s_i_glide_gridfile>
3POX-grid

> <i_i_glide_lignum>
10

> <i_i_glide_rotatable_bonds>
6

> <r_i_docking_score>
-4.03522882590476

> <r_i_glide_ligand_efficiency>
-0.155201108688645

> <r_i_glide_ligand_efficiency_sa>
-0.459782673803236

> <r_i_glide_ligand_efficiency_ln>
-0.947660249097998

> <r_i_glide_gscore>
-4.03522882590476

> <r_i_glide_lipo>
0

> <r_i_glide_hbond>
-0.692698408346689

> <r_i_glide_metal>
0

> <r_i_glide_rewards>
-0.681657613054877

> <r_i_glide_evdw>
-27.8700256347656

> <r_i_glide_ecoul>
-8.48236274719238

> <r_i_glide_erotb>
0.622478626066327

> <r_i_glide_esite>
-0.61749573675238

> <r_i_glide_emodel>
-52.9086113754602

> <r_i_glide_energy>
-36.352388381958

> <r_i_glide_einternal>
5.49810743331909

> <i_i_glide_confnum>
13

> <i_i_glide_posenum>
332

> <r_i_glide_eff_state_penalty>
0

> <r_glide_res:A132_vdw>
-1.56004542876864

> <r_glide_res:A132_coul>
-35.9784244666982

> <r_glide_res:A132_hbond>
-0.163525357277962

> <r_glide_res:A132_dist>
1.88358801778566

> <r_glide_res:A132_Eint>
-37.7019952527448

> <r_glide_res:A117_vdw>
-2.57662131048101

> <r_glide_res:A117_coul>
20.3576724622193

> <r_glide_res:A117_hbond>
0

> <r_glide_res:A117_dist>
3.42174356471243

> <r_glide_res:A117_Eint>
17.7810511517383

> <r_glide_res:A113_vdw>
-2.68652753995381

> <r_glide_res:A113_coul>
17.7916505329162

> <r_glide_res:A113_hbond>
0

> <r_glide_res:A113_dist>
2.52001200505982

> <r_glide_res:A113_Eint>
15.1051229929624

> <r_glide_res:A82_vdw>
-1.87362013390194

> <r_glide_res:A82_coul>
-41.0809351165352

> <r_glide_res:A82_hbond>
-0.0857717562580231

> <r_glide_res:A82_dist>
2.33407423989947

> <r_glide_res:A82_Eint>
-43.0403270066952

> <r_glide_res:A42_vdw>
-0.346450348841985

> <r_glide_res:A42_coul>
-47.5462448621313

> <r_glide_res:A42_hbond>
-0.243401294810703

> <r_glide_res:A42_dist>
1.90342759422452

> <r_glide_res:A42_Eint>
-48.136096505784

> <r_glide_res:A16_vdw>
-0.13919247200178

> <r_glide_res:A16_coul>
-47.6836392658275

> <r_glide_res:A16_hbond>
-0.2

> <r_glide_res:A16_dist>
1.78981130841872

> <r_glide_res:A16_Eint>
-48.0228317378293

> <s_m_source_file>
ligprep_Nicaido_neutral.maegz

> <i_m_source_file_index>
7

> <i_lp_mmshare_version>
58128

> <i_f3d_flags>
0

> <s_lp_Force_Field>
S-OPLS

> <r_lp_Energy>
53.916069

> <b_lp_Chiralities_Consistent>
1

> <s_lp_Variant>
LY097964-2

> <s_epik_input>
W05IMl1jKG4xKXNbY0hdYzEvQyg9TlxPW0NIM10pQyg9TylbTkhdW0NAQEhdMkMoPU8pTihbQ0BIXTIzKUMoQyg9TylbT0hdKT1DKFtDSDJdUzMpW0NIM10=

> <s_epik_cmdline>
J2VwaWtfcHl0aG9uJywgJy1waHQnLCAnMC4wJywgJy1waCcsICc3LjQnLCAnLW50JywgJy1tYScsICc1MDAnLCAnLWltYWUnLCAnPGluZmlsZS5tYWU+JywgJy1vbWFlJywgJzxvdXRmaWxlLm1hZT4n

> <r_lp_tautomer_probability>
1

> <r_epik_Ionization_Penalty>
  0.0005

> <r_epik_Ionization_Penalty_Charging>
  0.0000

> <r_epik_Ionization_Penalty_Neutral>
  0.0005

> <r_epik_State_Penalty>
  0.0000

> <r_epik_Charging_Adjusted_Penalty>
1.64985111359435e-05

> <i_epik_Tot_Q>
-1

> <i_epik_Tot_abs_Q>
1

> <s_epik_Chemistry_Notes>
This compound has an imine and may undergo hydrolysis. This compound contains an acetal/aminal-like group ( X-CH(R)-Y where X, Y are N, S, or O) that may be acid/base labile, releasing an aldehyde.

> <s_m_subgroup_title>
glide-dock_Nicaido_neutral_pv1

> <s_m_subgroupid>
glide-dock_Nicaido_neutral_pv1

> <b_m_subgroup_collapsed>
0

$$$$
Cephalexin
                    3D
 Schrodinger Suite 2022-2.
 40 42  0  0  1  0            999 V2000
  -32.5672  -20.4392  -25.1891 C   0  0  0  0  0  0
  -31.4727  -20.4251  -24.1281 C   0  0  0  0  0  0
  -30.4016  -21.2673  -24.1142 C   0  0  0  0  0  0
  -29.4664  -21.2709  -23.0601 N   0  0  0  0  0  0
  -29.7516  -20.6887  -21.7599 C   0  0  1  0  0  0
  -28.2948  -21.0035  -21.3823 C   0  0  2  0  0  0
  -28.2777  -21.8728  -22.6709 C   0  0  0  0  0  0
  -27.5688  -22.7196  -23.1784 O   0  0  0  0  0  0
  -28.2053  -21.6681  -20.0732 N   0  0  0  0  0  0
  -28.2368  -22.9723  -19.7391 C   0  0  0  0  0  0
  -28.0639  -23.2891  -18.2459 C   0  0  2  0  0  0
  -26.5779  -23.3808  -18.0949 C   0  0  0  0  0  0
  -25.8482  -24.5542  -18.4134 C   0  0  0  0  0  0
  -24.4485  -24.6168  -18.2621 C   0  0  0  0  0  0
  -23.7452  -23.5008  -17.7758 C   0  0  0  0  0  0
  -24.4462  -22.3269  -17.4489 C   0  0  0  0  0  0
  -25.8432  -22.2721  -17.6137 C   0  0  0  0  0  0
  -28.7702  -24.5210  -17.8887 N   0  0  0  0  0  0
  -28.3754  -23.9045  -20.5383 O   0  0  0  0  0  0
  -30.3104  -18.9817  -22.0151 S   0  0  0  0  0  0
  -31.7358  -19.3635  -23.0597 C   0  0  0  0  0  0
  -30.1515  -22.3458  -25.2221 C   0  0  0  0  0  0
  -30.0992  -21.9495  -26.4131 O   0  5  0  0  0  0
  -29.9690  -23.5232  -24.8349 O   0  0  0  0  0  0
  -33.5456  -20.4606  -24.7081 H   0  0  0  0  0  0
  -32.5095  -19.5329  -25.7925 H   0  0  0  0  0  0
  -32.5269  -21.2954  -25.8593 H   0  0  0  0  0  0
  -30.4939  -21.2770  -21.2143 H   0  0  0  0  0  0
  -27.6648  -20.1149  -21.4433 H   0  0  0  0  0  0
  -28.1538  -21.0247  -19.2954 H   0  0  0  0  0  0
  -28.4794  -22.4708  -17.6539 H   0  0  0  0  0  0
  -26.3795  -25.4233  -18.7705 H   0  0  0  0  0  0
  -23.9140  -25.5193  -18.5156 H   0  0  0  0  0  0
  -22.6732  -23.5410  -17.6528 H   0  0  0  0  0  0
  -23.9162  -21.4650  -17.0702 H   0  0  0  0  0  0
  -26.3637  -21.3619  -17.3494 H   0  0  0  0  0  0
  -29.2774  -24.3881  -17.0255 H   0  0  0  0  0  0
  -29.4893  -24.6963  -18.5765 H   0  0  0  0  0  0
  -32.0602  -18.4347  -23.5298 H   0  0  0  0  0  0
  -32.5527  -19.7044  -22.4237 H   0  0  0  0  0  0
  1  2  1  0  0  0
  1 25  1  0  0  0
  1 26  1  0  0  0
  1 27  1  0  0  0
  2 21  1  0  0  0
  2  3  2  0  0  0
  3  4  1  0  0  0
  3 22  1  0  0  0
  4  7  1  0  0  0
  4  5  1  0  0  0
  5  6  1  0  0  0
  5 20  1  0  0  0
  5 28  1  0  0  0
  6  7  1  0  0  0
  6  9  1  0  0  0
  6 29  1  0  0  0
  7  8  2  0  0  0
  9 10  1  0  0  0
  9 30  1  0  0  0
 10 11  1  0  0  0
 10 19  2  0  0  0
 11 12  1  0  0  0
 11 18  1  0  0  0
 11 31  1  0  0  0
 12 17  1  0  0  0
 12 13  2  0  0  0
 13 14  1  0  0  0
 13 32  1  0  0  0
 14 15  2  0  0  0
 14 33  1  0  0  0
 15 16  1  0  0  0
 15 34  1  0  0  0
 16 17  2  0  0  0
 16 35  1  0  0  0
 17 36  1  0  0  0
 18 37  1  0  0  0
 18 38  1  0  0  0
 20 21  1  0  0  0
 21 39  1  0  0  0
 21 40  1  0  0  0
 22 23  1  0  0  0
 22 24  2  0  0  0
M  CHG  1  23  -1
M  END
> <s_m_entry_id>
27705

> <s_m_entry_name>
data_maestro.14

> <s_m_Source_Path>
C:\Users\olshana1\Git\GramNeg-Accumulation\Gram Negative Permeation - OmpF

> <s_m_Source_File>
data_maestro.csv

> <i_m_Source_File_Index>
14

> <s_m_job_name>
glide-dock_Nicaido_neutral

> <s_i_glide_gridfile>
3POX-grid

> <i_i_glide_lignum>
19

> <i_i_glide_rotatable_bonds>
5

> <r_i_docking_score>
-4.03299961055332

> <r_i_glide_ligand_efficiency>
-0.168041650439722

> <r_i_glide_ligand_efficiency_sa>
-0.484715995767388

> <r_i_glide_ligand_efficiency_ln>
-0.965281869098717

> <r_i_glide_gscore>
-4.14819961055332

> <r_i_glide_lipo>
0

> <r_i_glide_hbond>
-0.705923474342447

> <r_i_glide_metal>
0

> <r_i_glide_rewards>
-1.0473951362557

> <r_i_glide_evdw>
-26.8214836120605

> <r_i_glide_ecoul>
-7.35315704345703

> <r_i_glide_erotb>
0.475363118437828

> <r_i_glide_esite>
-0.426196381271416

> <r_i_glide_emodel>
-51.3834091971829

> <r_i_glide_energy>
-34.1746406555176

> <r_i_glide_einternal>
3.60294508934021

> <i_i_glide_confnum>
12

> <i_i_glide_posenum>
368

> <r_i_glide_eff_state_penalty>
0.1152

> <r_glide_res:A132_vdw>
-1.46603441680154

> <r_glide_res:A132_coul>
-34.7647015450578

> <r_glide_res:A132_hbond>
-0.16

> <r_glide_res:A132_dist>
1.79992752422231

> <r_glide_res:A132_Eint>
-36.3907359618594

> <r_glide_res:A117_vdw>
-1.73472830742569

> <r_glide_res:A117_coul>
23.4031751820454

> <r_glide_res:A117_hbond>
0

> <r_glide_res:A117_dist>
3.56822924287729

> <r_glide_res:A117_Eint>
21.6684468746198

> <r_glide_res:A113_vdw>
-4.49552289510265

> <r_glide_res:A113_coul>
11.7195655778882

> <r_glide_res:A113_hbond>
0

> <r_glide_res:A113_dist>
2.85008403429689

> <r_glide_res:A113_Eint>
7.22404268278559

> <r_glide_res:A82_vdw>
-1.67669176521833

> <r_glide_res:A82_coul>
-43.8781889572916

> <r_glide_res:A82_hbond>
0

> <r_glide_res:A82_dist>
2.5561574274303

> <r_glide_res:A82_Eint>
-45.5548807225099

> <r_glide_res:A42_vdw>
0.0315712225298515

> <r_glide_res:A42_coul>
-50.1370263628955

> <r_glide_res:A42_hbond>
-0.345923474342447

> <r_glide_res:A42_dist>
1.97199519925939

> <r_glide_res:A42_Eint>
-50.4513786147081

> <r_glide_res:A16_vdw>
-0.120969477098041

> <r_glide_res:A16_coul>
-47.4219686189619

> <r_glide_res:A16_hbond>
-0.2

> <r_glide_res:A16_dist>
1.8897907322341

> <r_glide_res:A16_Eint>
-47.7429380960599

> <s_m_source_file>
ligprep_Nicaido_neutral.maegz

> <i_m_source_file_index>
14

> <i_lp_mmshare_version>
58128

> <i_f3d_flags>
0

> <s_lp_Force_Field>
S-OPLS

> <r_lp_Energy>
47.820483

> <b_lp_Chiralities_Consistent>
1

> <s_lp_Variant>
Cephalexin-1

> <s_epik_input>
W09IXUMoPU8pQzE9QyhbQ0gzXSlbQ0gyXVNbQ0BASF0oTjEyKVtDQEhdKEMyPU8pW05IXUMoPU8pW0NAQEhdKFtOSDJdKWMzW2NIXVtjSF1bY0hdW2NIXVtjSF0z

> <s_epik_cmdline>
J2VwaWtfcHl0aG9uJywgJy1waHQnLCAnMC4wJywgJy1waCcsICc3LjQnLCAnLW50JywgJy1tYScsICc1MDAnLCAnLWltYWUnLCAnPGluZmlsZS5tYWU+JywgJy1vbWFlJywgJzxvdXRmaWxlLm1hZT4n

> <r_epik_Ionization_Penalty>
  0.1152

> <r_epik_Ionization_Penalty_Charging>
  0.0000

> <r_epik_Ionization_Penalty_Neutral>
  0.1152

> <r_epik_State_Penalty>
  0.1152

> <r_epik_Charging_Adjusted_Penalty>
0.115182589938214

> <i_epik_Tot_Q>
-1

> <i_epik_Tot_abs_Q>
1

> <s_epik_Chemistry_Notes>
This compound contains an acetal/aminal-like group ( X-CH(R)-Y where X, Y are N, S, or O) that may be acid/base labile, releasing an aldehyde.

> <s_m_subgroup_title>
glide-dock_Nicaido_neutral_pv1

> <s_m_subgroupid>
glide-dock_Nicaido_neutral_pv1

> <b_m_subgroup_collapsed>
0

$$$$
Ceftriaxone
                    3D
 Schrodinger Suite 2022-2.
 52 55  0  0  1  0            999 V2000
  -31.3497  -23.5083  -25.3534 C   0  0  0  0  0  0
  -30.6009  -22.2910  -25.0739 N   0  0  0  0  0  0
  -30.5121  -21.7809  -23.7498 C   0  0  0  0  0  0
  -30.6437  -23.1019  -22.4801 S   0  0  0  0  0  0
  -29.7282  -22.4509  -21.0229 C   0  0  0  0  0  0
  -28.5021  -21.5599  -21.2758 C   0  0  0  0  0  0
  -27.4867  -21.8399  -22.1455 C   0  0  0  0  0  0
  -26.4913  -20.8982  -22.4548 N   0  0  0  0  0  0
  -26.6894  -19.4887  -22.2240 C   0  0  2  0  0  0
  -25.3140  -19.2379  -22.8733 C   0  0  2  0  0  0
  -25.2840  -20.7687  -23.1235 C   0  0  0  0  0  0
  -24.5540  -21.5761  -23.6592 O   0  0  0  0  0  0
  -24.3497  -18.7671  -21.8877 N   0  0  0  0  0  0
  -23.0114  -18.7852  -22.0120 C   0  0  0  0  0  0
  -22.2707  -18.3503  -20.7395 C   0  0  0  0  0  0
  -23.0529  -18.5192  -19.4823 C   0  0  0  0  0  0
  -23.1892  -17.4978  -18.5696 C   0  0  0  0  0  0
  -24.2144  -17.9492  -17.2325 S   0  0  0  0  0  0
  -24.3915  -19.5389  -17.9501 C   0  0  0  0  0  0
  -25.1686  -20.5261  -17.3737 N   0  0  0  0  0  0
  -23.7192  -19.6905  -19.0888 N   0  0  0  0  0  0
  -21.0840  -17.8798  -20.6694 N   0  0  0  0  0  0
  -20.4323  -17.7623  -21.9065 O   0  0  0  0  0  0
  -19.1050  -17.3354  -21.6694 C   0  0  0  0  0  0
  -22.4369  -19.1499  -23.0391 O   0  0  0  0  0  0
  -27.0361  -19.2907  -20.4513 S   0  0  0  0  0  0
  -28.5544  -20.2787  -20.4351 C   0  0  0  0  0  0
  -27.4010  -23.1496  -22.9801 C   0  0  0  0  0  0
  -27.5613  -24.2366  -22.3759 O   0  5  0  0  0  0
  -27.2027  -23.0306  -24.2084 O   0  0  0  0  0  0
  -30.3174  -20.5265  -23.4625 N   0  0  0  0  0  0
  -30.0731  -19.6299  -24.4988 C   0  0  0  0  0  0
  -29.8726  -20.2127  -25.9366 C   0  0  0  0  0  0
  -29.5689  -19.4076  -26.8133 O   0  0  0  0  0  0
  -30.0501  -21.5495  -26.1518 N   0  5  0  0  0  0
  -29.9713  -18.4132  -24.3399 O   0  0  0  0  0  0
  -32.2976  -23.5188  -24.8137 H   0  0  0  0  0  0
  -31.5762  -23.5860  -26.4168 H   0  0  0  0  0  0
  -30.7713  -24.3853  -25.0686 H   0  0  0  0  0  0
  -29.4321  -23.2851  -20.3879 H   0  0  0  0  0  0
  -30.4547  -21.8867  -20.4355 H   0  0  0  0  0  0
  -27.5243  -19.1481  -22.8370 H   0  0  0  0  0  0
  -25.3806  -18.6157  -23.7664 H   0  0  0  0  0  0
  -24.7456  -18.4892  -21.0003 H   0  0  0  0  0  0
  -22.7735  -16.5007  -18.6084 H   0  0  0  0  0  0
  -25.4829  -21.2749  -17.9723 H   0  0  0  0  0  0
  -25.8686  -20.2333  -16.7044 H   0  0  0  0  0  0
  -18.5694  -17.2638  -22.6159 H   0  0  0  0  0  0
  -19.0896  -16.3498  -21.2090 H   0  0  0  0  0  0
  -18.5657  -18.0354  -21.0295 H   0  0  0  0  0  0
  -29.3760  -19.6589  -20.7956 H   0  0  0  0  0  0
  -28.7689  -20.5306  -19.3963 H   0  0  0  0  0  0
  1  2  1  0  0  0
  1 37  1  0  0  0
  1 38  1  0  0  0
  1 39  1  0  0  0
  2 35  1  0  0  0
  2  3  1  0  0  0
  3  4  1  0  0  0
  3 31  2  0  0  0
  4  5  1  0  0  0
  5  6  1  0  0  0
  5 40  1  0  0  0
  5 41  1  0  0  0
  6 27  1  0  0  0
  6  7  2  0  0  0
  7  8  1  0  0  0
  7 28  1  0  0  0
  8 11  1  0  0  0
  8  9  1  0  0  0
  9 10  1  0  0  0
  9 26  1  0  0  0
  9 42  1  0  0  0
 10 11  1  0  0  0
 10 13  1  0  0  0
 10 43  1  0  0  0
 11 12  2  0  0  0
 13 14  1  0  0  0
 13 44  1  0  0  0
 14 15  1  0  0  0
 14 25  2  0  0  0
 15 16  1  0  0  0
 15 22  2  3  0  0
 16 21  1  0  0  0
 16 17  2  0  0  0
 17 18  1  0  0  0
 17 45  1  0  0  0
 18 19  1  0  0  0
 19 20  1  0  0  0
 19 21  2  0  0  0
 20 46  1  0  0  0
 20 47  1  0  0  0
 22 23  1  0  0  0
 23 24  1  0  0  0
 24 48  1  0  0  0
 24 49  1  0  0  0
 24 50  1  0  0  0
 26 27  1  0  0  0
 27 51  1  0  0  0
 27 52  1  0  0  0
 28 29  1  0  0  0
 28 30  2  0  0  0
 31 32  1  0  0  0
 32 33  1  0  0  0
 32 36  2  0  0  0
 33 34  2  0  0  0
 33 35  1  0  0  0
M  CHG  2  29  -1  35  -1
M  END
> <s_m_entry_id>
27706

> <s_m_entry_name>
data_maestro.22

> <s_m_Source_Path>
C:\Users\olshana1\Git\GramNeg-Accumulation\Gram Negative Permeation - OmpF

> <s_m_Source_File>
data_maestro.csv

> <i_m_Source_File_Index>
22

> <s_m_job_name>
glide-dock_Nicaido_neutral

> <s_i_glide_gridfile>
3POX-grid

> <i_i_glide_lignum>
29

> <i_i_glide_rotatable_bonds>
9

> <r_i_docking_score>
-4.02539897813797

> <r_i_glide_ligand_efficiency>
-0.11181663828161

> <r_i_glide_ligand_efficiency_sa>
-0.369210404380819

> <r_i_glide_ligand_efficiency_ln>
-0.878233303317357

> <r_i_glide_gscore>
-4.02539897813797

> <r_i_glide_lipo>
-0.206275548792055

> <r_i_glide_hbond>
-0.757384853721672

> <r_i_glide_metal>
0

> <r_i_glide_rewards>
-0.0164107122894983

> <r_i_glide_evdw>
-37.5941009521484

> <r_i_glide_ecoul>
-7.99979782104492

> <r_i_glide_erotb>
0.472124986767549

> <r_i_glide_esite>
-0.437778129338136

> <r_i_glide_emodel>
-68.5317309926081

> <r_i_glide_energy>
-45.5938987731934

> <r_i_glide_einternal>
11.4877338409424

> <i_i_glide_confnum>
217

> <i_i_glide_posenum>
278

> <r_i_glide_eff_state_penalty>
0

> <r_glide_res:A132_vdw>
-1.40118647488817

> <r_glide_res:A132_coul>
-55.3573085674831

> <r_glide_res:A132_hbond>
-0.00412150393659669

> <r_glide_res:A132_dist>
2.47202136304376

> <r_glide_res:A132_Eint>
-56.7626165463079

> <r_glide_res:A117_vdw>
-4.76267784807182

> <r_glide_res:A117_coul>
49.8652319015155

> <r_glide_res:A117_hbond>
0

> <r_glide_res:A117_dist>
2.42771848905169

> <r_glide_res:A117_Eint>
45.1025540534437

> <r_glide_res:A113_vdw>
-2.3679151524768

> <r_glide_res:A113_coul>
37.8584054504939

> <r_glide_res:A113_hbond>
0

> <r_glide_res:A113_dist>
2.33622684403146

> <r_glide_res:A113_Eint>
35.4904902980171

> <r_glide_res:A82_vdw>
1.19851587699732

> <r_glide_res:A82_coul>
-74.6711492983283

> <r_glide_res:A82_hbond>
-0.246563510928141

> <r_glide_res:A82_dist>
1.67338560282004

> <r_glide_res:A82_Eint>
-73.7191969322591

> <r_glide_res:A42_vdw>
-1.57203937073372

> <r_glide_res:A42_coul>
-83.1393839356432

> <r_glide_res:A42_hbond>
-0.166871204410917

> <r_glide_res:A42_dist>
1.97604485295349

> <r_glide_res:A42_Eint>
-84.8782945107878

> <r_glide_res:A16_vdw>
0.500237865268544

> <r_glide_res:A16_coul>
-80.087631080424

> <r_glide_res:A16_hbond>
-0.236201241121417

> <r_glide_res:A16_dist>
2.02037798536142

> <r_glide_res:A16_Eint>
-79.8235944562769

> <s_m_source_file>
ligprep_Nicaido_neutral.maegz

> <i_m_source_file_index>
22

> <i_lp_mmshare_version>
58128

> <i_f3d_flags>
0

> <s_lp_Force_Field>
S-OPLS

> <r_lp_Energy>
111.196812

> <b_lp_Chiralities_Consistent>
1

> <s_lp_Variant>
Ceftriaxone-2

> <s_epik_input>
W09IXWMobjEpYyg9TyluYyhuMVtDSDNdKVNbQ0gyXUMoPUMyQyg9TylbT0hdKVtDSDJdU1tDQEhdKE4yMylbQ0BIXShDMz1PKVtOSF1DKD1PKS9DKD1OL09bQ0gzXSljNFtjSF1zYyhuNClbTkgyXQ==

> <s_epik_cmdline>
J2VwaWtfcHl0aG9uJywgJy1waHQnLCAnMC4wJywgJy1waCcsICc3LjQnLCAnLW50JywgJy1tYScsICc1MDAnLCAnLWltYWUnLCAnPGluZmlsZS5tYWU+JywgJy1vbWFlJywgJzxvdXRmaWxlLm1hZT4n

> <r_lp_tautomer_probability>
1

> <r_epik_Ionization_Penalty>
  0.0014

> <r_epik_Ionization_Penalty_Charging>
  0.0010

> <r_epik_Ionization_Penalty_Neutral>
  0.0004

> <r_epik_State_Penalty>
  0.0000

> <r_epik_Charging_Adjusted_Penalty>
0.000994184415634904

> <i_epik_Tot_Q>
-2

> <i_epik_Tot_abs_Q>
2

> <s_epik_Chemistry_Notes>
This compound has an imine and may undergo hydrolysis. This compound contains an acetal/aminal-like group ( X-CH(R)-Y where X, Y are N, S, or O) that may be acid/base labile, releasing an aldehyde.

> <s_m_subgroup_title>
glide-dock_Nicaido_neutral_pv1

> <s_m_subgroupid>
glide-dock_Nicaido_neutral_pv1

> <b_m_subgroup_collapsed>
0

$$$$
Sulbenicillin
                    3D
 Schrodinger Suite 2022-2.
 43 45  0  0  1  0            999 V2000
  -20.3369  -21.0878  -26.1718 C   0  0  0  0  0  0
  -21.4556  -21.8710  -25.4647 C   0  0  0  0  0  0
  -21.0577  -23.3124  -24.9781 C   0  0  2  0  0  0
  -21.7450  -23.4321  -23.7140 N   0  0  0  0  0  0
  -21.9499  -22.3279  -22.7971 C   0  0  1  0  0  0
  -22.0017  -20.9408  -23.9758 S   0  0  0  0  0  0
  -23.1526  -23.0933  -22.2230 C   0  0  2  0  0  0
  -22.7952  -24.1754  -23.2556 C   0  0  0  0  0  0
  -23.2273  -25.2510  -23.6127 O   0  0  0  0  0  0
  -24.4198  -22.3934  -22.4453 N   0  0  0  0  0  0
  -25.6282  -22.9781  -22.4201 C   0  0  0  0  0  0
  -26.8519  -22.0635  -22.2975 C   0  0  2  0  0  0
  -27.2996  -22.0510  -20.8351 C   0  0  0  0  0  0
  -28.0370  -23.1151  -20.2650 C   0  0  0  0  0  0
  -28.3690  -23.1064  -18.8980 C   0  0  0  0  0  0
  -27.9676  -22.0329  -18.0850 C   0  0  0  0  0  0
  -27.2289  -20.9729  -18.6397 C   0  0  0  0  0  0
  -26.9023  -20.9769  -20.0082 C   0  0  0  0  0  0
  -28.1996  -22.5366  -23.4962 S   0  0  0  0  0  0
  -28.5257  -23.9467  -23.2134 O   0  0  0  0  0  0
  -27.5692  -22.3495  -24.8133 O   0  5  0  0  0  0
  -29.2963  -21.6022  -23.2161 O   0  0  0  0  0  0
  -25.7662  -24.2008  -22.4123 O   0  0  0  0  0  0
  -19.5713  -23.6510  -24.7380 C   0  0  0  0  0  0
  -18.8912  -22.8801  -24.0271 O   0  5  0  0  0  0
  -19.1688  -24.7489  -25.1958 O   0  0  0  0  0  0
  -22.6658  -21.9715  -26.4149 C   0  0  0  0  0  0
  -19.8986  -21.6594  -26.9860 H   0  0  0  0  0  0
  -20.7246  -20.1604  -26.5923 H   0  0  0  0  0  0
  -19.5335  -20.8176  -25.4863 H   0  0  0  0  0  0
  -21.4484  -24.0521  -25.6787 H   0  0  0  0  0  0
  -21.1294  -22.2106  -22.0870 H   0  0  0  0  0  0
  -22.9955  -23.3848  -21.1838 H   0  0  0  0  0  0
  -24.3727  -21.3849  -22.4840 H   0  0  0  0  0  0
  -26.5790  -21.0471  -22.5821 H   0  0  0  0  0  0
  -28.3534  -23.9498  -20.8619 H   0  0  0  0  0  0
  -28.9515  -23.9086  -18.4709 H   0  0  0  0  0  0
  -28.2404  -22.0135  -17.0415 H   0  0  0  0  0  0
  -26.9175  -20.1504  -18.0137 H   0  0  0  0  0  0
  -26.3333  -20.1523  -20.4122 H   0  0  0  0  0  0
  -22.4091  -22.5086  -27.3283 H   0  0  0  0  0  0
  -23.4989  -22.4928  -25.9418 H   0  0  0  0  0  0
  -23.0229  -20.9837  -26.7062 H   0  0  0  0  0  0
  1  2  1  0  0  0
  1 28  1  0  0  0
  1 29  1  0  0  0
  1 30  1  0  0  0
  2  6  1  0  0  0
  2  3  1  0  0  0
  2 27  1  0  0  0
  3  4  1  0  0  0
  3 24  1  0  0  0
  3 31  1  0  0  0
  4  8  1  0  0  0
  4  5  1  0  0  0
  5  6  1  0  0  0
  5  7  1  0  0  0
  5 32  1  0  0  0
  7  8  1  0  0  0
  7 10  1  0  0  0
  7 33  1  0  0  0
  8  9  2  0  0  0
 10 11  1  0  0  0
 10 34  1  0  0  0
 11 12  1  0  0  0
 11 23  2  0  0  0
 12 13  1  0  0  0
 12 19  1  0  0  0
 12 35  1  0  0  0
 13 18  1  0  0  0
 13 14  2  0  0  0
 14 15  1  0  0  0
 14 36  1  0  0  0
 15 16  2  0  0  0
 15 37  1  0  0  0
 16 17  1  0  0  0
 16 38  1  0  0  0
 17 18  2  0  0  0
 17 39  1  0  0  0
 18 40  1  0  0  0
 19 20  2  0  0  0
 19 21  1  0  0  0
 19 22  2  0  0  0
 24 25  1  0  0  0
 24 26  2  0  0  0
 27 41  1  0  0  0
 27 42  1  0  0  0
 27 43  1  0  0  0
M  CHG  2  21  -1  25  -1
M  END
> <s_m_entry_id>
27707

> <s_m_entry_name>
data_maestro.23

> <s_m_Source_Path>
C:\Users\olshana1\Git\GramNeg-Accumulation\Gram Negative Permeation - OmpF

> <s_m_Source_File>
data_maestro.csv

> <i_m_Source_File_Index>
23

> <s_m_job_name>
glide-dock_Nicaido_neutral

> <s_i_glide_gridfile>
3POX-grid

> <i_i_glide_lignum>
30

> <i_i_glide_rotatable_bonds>
6

> <r_i_docking_score>
-4.02372184574608

> <r_i_glide_ligand_efficiency>
-0.149026735027633

> <r_i_glide_ligand_efficiency_sa>
-0.44708020459173

> <r_i_glide_ligand_efficiency_ln>
-0.936656109450601

> <r_i_glide_gscore>
-4.02372184574608

> <r_i_glide_lipo>
-0.105879723843527

> <r_i_glide_hbond>
-0.569245184447047

> <r_i_glide_metal>
0

> <r_i_glide_rewards>
-0.588878874805135

> <r_i_glide_evdw>
-20.8348979949951

> <r_i_glide_ecoul>
-10.0556745529175

> <r_i_glide_erotb>
0.347763984117939

> <r_i_glide_esite>
-0.557385964080931

> <r_i_glide_emodel>
-50.559357883177

> <r_i_glide_energy>
-30.8905725479126

> <r_i_glide_einternal>
4.2524209022522

> <i_i_glide_confnum>
18

> <i_i_glide_posenum>
306

> <r_i_glide_eff_state_penalty>
0

> <r_glide_res:A132_vdw>
-1.69979766592674

> <r_glide_res:A132_coul>
-54.0256223599895

> <r_glide_res:A132_hbond>
-0.0678324184241766

> <r_glide_res:A132_dist>
1.78996083521186

> <r_glide_res:A132_Eint>
-55.7932524443404

> <r_glide_res:A117_vdw>
-0.995195878485925

> <r_glide_res:A117_coul>
39.9972735294615

> <r_glide_res:A117_hbond>
0

> <r_glide_res:A117_dist>
4.13064742065802

> <r_glide_res:A117_Eint>
39.0020776509756

> <r_glide_res:A113_vdw>
-1.86585674627187

> <r_glide_res:A113_coul>
41.7984371802226

> <r_glide_res:A113_hbond>
0

> <r_glide_res:A113_dist>
3.00301924859991

> <r_glide_res:A113_Eint>
39.9325804339507

> <r_glide_res:A82_vdw>
0.54219013831546

> <r_glide_res:A82_coul>
-70.0451711751458

> <r_glide_res:A82_hbond>
-0.0890710630028772

> <r_glide_res:A82_dist>
1.92311843987963

> <r_glide_res:A82_Eint>
-69.5920520998332

> <r_glide_res:A42_vdw>
0.667045724623319

> <r_glide_res:A42_coul>
-64.2187663958434

> <r_glide_res:A42_hbond>
-0.2

> <r_glide_res:A42_dist>
1.65769886633424

> <r_glide_res:A42_Eint>
-63.7517206712201

> <r_glide_res:A16_vdw>
-0.209883636449294

> <r_glide_res:A16_coul>
-40.2061932679279

> <r_glide_res:A16_hbond>
0

> <r_glide_res:A16_dist>
4.44536616306623

> <r_glide_res:A16_Eint>
-40.4160769043772

> <s_m_source_file>
ligprep_Nicaido_neutral.maegz

> <i_m_source_file_index>
23

> <i_lp_mmshare_version>
58128

> <i_f3d_flags>
0

> <s_lp_Force_Field>
S-OPLS

> <r_lp_Energy>
22.166908

> <b_lp_Chiralities_Consistent>
1

> <s_lp_Variant>
Sulbenicillin-1

> <s_epik_input>
W09IXUMoPU8pW0NAQEhdMUMoW0NIM10pKFtDSDNdKVNbQ0BIXShOMTIpW0NASF0oQzI9TylbTkhdQyg9TylbQ0BASF0oUyg9TykoPU8pW09IXSljM1tjSF1bY0hdW2NIXVtjSF1bY0hdMw==

> <s_epik_cmdline>
J2VwaWtfcHl0aG9uJywgJy1waHQnLCAnMC4wJywgJy1waCcsICc3LjQnLCAnLW50JywgJy1tYScsICc1MDAnLCAnLWltYWUnLCAnPGluZmlsZS5tYWU+JywgJy1vbWFlJywgJzxvdXRmaWxlLm1hZT4n

> <r_lp_tautomer_probability>
1

> <r_epik_Ionization_Penalty>
  0.0000

> <r_epik_Ionization_Penalty_Charging>
  0.0000

> <r_epik_Ionization_Penalty_Neutral>
  0.0000

> <r_epik_State_Penalty>
  0.0000

> <r_epik_Charging_Adjusted_Penalty>
1.13251598244902e-05

> <i_epik_Tot_Q>
-2

> <i_epik_Tot_abs_Q>
2

> <s_epik_Chemistry_Notes>
This compound contains an acetal/aminal-like group ( X-CH(R)-Y where X, Y are N, S, or O) that may be acid/base labile, releasing an aldehyde.

> <s_m_subgroup_title>
glide-dock_Nicaido_neutral_pv1

> <s_m_subgroupid>
glide-dock_Nicaido_neutral_pv1

> <b_m_subgroup_collapsed>
0

$$$$
Moxalactam
                    3D
 Schrodinger Suite 2022-2.
 54 57  0  0  1  0            999 V2000
  -26.4999  -21.8747  -18.0041 C   0  0  0  0  0  0
  -25.7089  -23.0895  -18.0044 N   0  0  0  0  0  0
  -24.6133  -23.4361  -17.3131 C   0  0  0  0  0  0
  -23.8227  -22.3678  -16.1442 S   0  0  0  0  0  0
  -22.0967  -22.9659  -16.2140 C   0  0  0  0  0  0
  -21.5118  -23.0508  -17.6262 C   0  0  0  0  0  0
  -21.0081  -24.1590  -18.2451 C   0  0  0  0  0  0
  -20.8453  -25.6144  -17.6240 C   0  0  0  0  0  0
  -21.5690  -25.9419  -16.6583 O   0  5  0  0  0  0
  -19.9601  -26.3494  -18.1218 O   0  0  0  0  0  0
  -20.5514  -23.9899  -19.5662 N   0  0  0  0  0  0
  -20.3050  -22.6622  -20.1112 C   0  0  2  0  0  0
  -21.4205  -21.8603  -19.7695 O   0  0  0  0  0  0
  -21.5318  -21.7051  -18.3616 C   0  0  0  0  0  0
  -20.2689  -23.3117  -21.5083 C   0  0  1  0  0  0
  -20.3136  -24.6767  -20.7525 C   0  0  0  0  0  0
  -20.2557  -25.8536  -21.0432 O   0  0  0  0  0  0
  -21.4070  -23.0088  -22.3942 N   0  0  0  0  0  0
  -22.7215  -23.2657  -22.2385 C   0  0  0  0  0  0
  -23.6125  -23.1564  -23.4971 C   0  0  2  0  0  0
  -23.7206  -24.5631  -24.1502 C   0  0  0  0  0  0
  -23.1690  -25.5495  -23.6133 O   0  5  0  0  0  0
  -24.3691  -24.6639  -25.2134 O   0  0  0  0  0  0
  -23.1259  -22.0884  -24.4952 C   0  0  0  0  0  0
  -22.1974  -22.3712  -25.5282 C   0  0  0  0  0  0
  -21.8014  -21.3635  -26.4292 C   0  0  0  0  0  0
  -22.3190  -20.0617  -26.3136 C   0  0  0  0  0  0
  -21.9692  -19.0936  -27.2106 O   0  0  0  0  0  0
  -23.2069  -19.7613  -25.2673 C   0  0  0  0  0  0
  -23.6130  -20.7683  -24.3684 C   0  0  0  0  0  0
  -23.2289  -23.6343  -21.1777 O   0  0  0  0  0  0
  -19.0072  -23.0841  -22.1378 O   0  0  0  0  0  0
  -18.7638  -23.8182  -23.3319 C   0  0  0  0  0  0
  -24.2594  -24.6813  -17.6135 N   0  0  0  0  0  0
  -25.1968  -25.0858  -18.5379 N   0  0  0  0  0  0
  -26.0590  -24.1438  -18.7833 N   0  0  0  0  0  0
  -25.8712  -21.0121  -17.7842 H   0  0  0  0  0  0
  -27.2783  -21.9504  -17.2448 H   0  0  0  0  0  0
  -26.9671  -21.7274  -18.9780 H   0  0  0  0  0  0
  -21.4862  -22.2671  -15.6419 H   0  0  0  0  0  0
  -22.0531  -23.8974  -15.6643 H   0  0  0  0  0  0
  -19.3472  -22.2523  -19.7839 H   0  0  0  0  0  0
  -22.4590  -21.1648  -18.1816 H   0  0  0  0  0  0
  -20.7225  -21.0779  -17.9855 H   0  0  0  0  0  0
  -21.1505  -22.6318  -23.2938 H   0  0  0  0  0  0
  -24.6158  -22.8832  -23.1684 H   0  0  0  0  0  0
  -21.7882  -23.3621  -25.6551 H   0  0  0  0  0  0
  -21.1000  -21.5942  -27.2144 H   0  0  0  0  0  0
  -21.4964  -19.4009  -27.9686 H   0  0  0  0  0  0
  -23.5837  -18.7547  -25.1597 H   0  0  0  0  0  0
  -24.3055  -20.5174  -23.5786 H   0  0  0  0  0  0
  -17.7646  -23.5834  -23.6989 H   0  0  0  0  0  0
  -19.4708  -23.5570  -24.1195 H   0  0  0  0  0  0
  -18.8074  -24.8951  -23.1661 H   0  0  0  0  0  0
  1  2  1  0  0  0
  1 37  1  0  0  0
  1 38  1  0  0  0
  1 39  1  0  0  0
  2 36  1  0  0  0
  2  3  1  0  0  0
  3  4  1  0  0  0
  3 34  2  0  0  0
  4  5  1  0  0  0
  5  6  1  0  0  0
  5 40  1  0  0  0
  5 41  1  0  0  0
  6 14  1  0  0  0
  6  7  2  0  0  0
  7  8  1  0  0  0
  7 11  1  0  0  0
  8  9  1  0  0  0
  8 10  2  0  0  0
 11 16  1  0  0  0
 11 12  1  0  0  0
 12 13  1  0  0  0
 12 15  1  0  0  0
 12 42  1  0  0  0
 13 14  1  0  0  0
 14 43  1  0  0  0
 14 44  1  0  0  0
 15 16  1  0  0  0
 15 18  1  0  0  0
 15 32  1  0  0  0
 16 17  2  0  0  0
 18 19  1  0  0  0
 18 45  1  0  0  0
 19 20  1  0  0  0
 19 31  2  0  0  0
 20 21  1  0  0  0
 20 24  1  0  0  0
 20 46  1  0  0  0
 21 22  1  0  0  0
 21 23  2  0  0  0
 24 30  1  0  0  0
 24 25  2  0  0  0
 25 26  1  0  0  0
 25 47  1  0  0  0
 26 27  2  0  0  0
 26 48  1  0  0  0
 27 28  1  0  0  0
 27 29  1  0  0  0
 28 49  1  0  0  0
 29 30  2  0  0  0
 29 50  1  0  0  0
 30 51  1  0  0  0
 32 33  1  0  0  0
 33 52  1  0  0  0
 33 53  1  0  0  0
 33 54  1  0  0  0
 34 35  1  0  0  0
 35 36  2  0  0  0
M  CHG  2   9  -1  22  -1
M  END
> <s_m_entry_id>
27708

> <s_m_entry_name>
data_maestro.20

> <s_m_Source_Path>
C:\Users\olshana1\Git\GramNeg-Accumulation\Gram Negative Permeation - OmpF

> <s_m_Source_File>
data_maestro.csv

> <i_m_Source_File_Index>
20

> <s_m_job_name>
glide-dock_Nicaido_neutral

> <s_i_glide_gridfile>
3POX-grid

> <i_i_glide_lignum>
25

> <i_i_glide_rotatable_bonds>
11

> <r_i_docking_score>
-4.01617605575438

> <r_i_glide_ligand_efficiency>
-0.111560445993177

> <r_i_glide_ligand_efficiency_sa>
-0.368364476083696

> <r_i_glide_ligand_efficiency_ln>
-0.876221110827824

> <r_i_glide_gscore>
-4.01617605575438

> <r_i_glide_lipo>
-0.101119480761745

> <r_i_glide_hbond>
-0.600405012460613

> <r_i_glide_metal>
0

> <r_i_glide_rewards>
0.00995282507566628

> <r_i_glide_evdw>
-32.9234085083008

> <r_i_glide_ecoul>
-10.5451745986938

> <r_i_glide_erotb>
0.534860792752126

> <r_i_glide_esite>
-0.6315185651407

> <r_i_glide_emodel>
-64.9714428036601

> <r_i_glide_energy>
-43.4685831069946

> <r_i_glide_einternal>
13.3270893096924

> <i_i_glide_confnum>
22

> <i_i_glide_posenum>
53

> <r_i_glide_eff_state_penalty>
0

> <r_glide_res:A132_vdw>
-2.09556106276358

> <r_glide_res:A132_coul>
-58.1214961703151

> <r_glide_res:A132_hbond>
0

> <r_glide_res:A132_dist>
2.57009214217322

> <r_glide_res:A132_Eint>
-60.2170572330787

> <r_glide_res:A117_vdw>
-0.856460381875546

> <r_glide_res:A117_coul>
32.8058050347748

> <r_glide_res:A117_hbond>
0

> <r_glide_res:A117_dist>
2.21355380602066

> <r_glide_res:A117_Eint>
31.9493446528993

> <r_glide_res:A113_vdw>
-0.404351335395819

> <r_glide_res:A113_coul>
29.3762155339484

> <r_glide_res:A113_hbond>
0

> <r_glide_res:A113_dist>
4.06989449639982

> <r_glide_res:A113_Eint>
28.9718641985526

> <r_glide_res:A82_vdw>
-1.43763317554096

> <r_glide_res:A82_coul>
-54.9695754864658

> <r_glide_res:A82_hbond>
-0.015070763360761

> <r_glide_res:A82_dist>
2.44569989547958

> <r_glide_res:A82_Eint>
-56.4222794253676

> <r_glide_res:A42_vdw>
-0.468975192900358

> <r_glide_res:A42_coul>
-49.5781976254716

> <r_glide_res:A42_hbond>
-0.00787016757217649

> <r_glide_res:A42_dist>
2.39907114564784

> <r_glide_res:A42_Eint>
-50.0550429859442

> <r_glide_res:A16_vdw>
-0.072579232417978

> <r_glide_res:A16_coul>
-28.2480876198875

> <r_glide_res:A16_hbond>
0

> <r_glide_res:A16_dist>
7.41304646496839

> <r_glide_res:A16_Eint>
-28.3206668523055

> <s_m_source_file>
ligprep_Nicaido_neutral.maegz

> <i_m_source_file_index>
20

> <i_lp_mmshare_version>
58128

> <i_f3d_flags>
0

> <s_lp_Force_Field>
S-OPLS

> <r_lp_Energy>
52.146636

> <b_lp_Chiralities_Consistent>
1

> <s_lp_Variant>
Moxalactam-1

> <s_epik_input>
bjFubmMobjFbQ0gzXSlTW0NIMl1DKD1DMkMoPU8pW09IXSlbQ0gyXU9bQ0BASF0oTjIzKVtDQF0oQzM9TykoT1tDSDNdKVtOSF1DKD1PKVtDQEhdKEMoPU8pW09IXSljNFtjSF1bY0hdYyhbT0hdKVtjSF1bY0hdNA==

> <s_epik_cmdline>
J2VwaWtfcHl0aG9uJywgJy1waHQnLCAnMC4wJywgJy1waCcsICc3LjQnLCAnLW50JywgJy1tYScsICc1MDAnLCAnLWltYWUnLCAnPGluZmlsZS5tYWU+JywgJy1vbWFlJywgJzxvdXRmaWxlLm1hZT4n

> <r_lp_tautomer_probability>
1

> <r_epik_Ionization_Penalty>
  0.0029

> <r_epik_Ionization_Penalty_Charging>
  0.0001

> <r_epik_Ionization_Penalty_Neutral>
  0.0029

> <r_epik_State_Penalty>
  0.0000

> <r_epik_Charging_Adjusted_Penalty>
5.78268703870383e-05

> <i_epik_Tot_Q>
-2

> <i_epik_Tot_abs_Q>
2

> <s_epik_Chemistry_Notes>
This compound contains an acetal/aminal-like group ( X-CH(R)-Y where X, Y are N, S, or O) that may be acid/base labile, releasing an aldehyde.

> <s_m_subgroup_title>
glide-dock_Nicaido_neutral_pv1

> <s_m_subgroupid>
glide-dock_Nicaido_neutral_pv1

> <b_m_subgroup_collapsed>
0

$$$$
Nalidixic acid
                    3D
 Schrodinger Suite 2022-2.
 28 29  0  0  1  0            999 V2000
  -36.8676  -28.1022  -28.0004 C   0  0  0  0  0  0
  -36.4977  -26.6400  -27.7233 C   0  0  0  0  0  0
  -35.2181  -26.2723  -28.3261 N   0  0  0  0  0  0
  -34.0460  -26.2909  -27.5817 C   0  0  0  0  0  0
  -32.8124  -25.9932  -28.0452 C   0  0  0  0  0  0
  -32.6903  -25.6369  -29.4849 C   0  0  0  0  0  0
  -33.9544  -25.5487  -30.2699 C   0  0  0  0  0  0
  -35.1985  -25.8857  -29.6832 C   0  0  0  0  0  0
  -36.3628  -25.8397  -30.3793 N   0  0  0  0  0  0
  -36.3335  -25.4391  -31.6674 C   0  0  0  0  0  0
  -35.1498  -25.0608  -32.3243 C   0  0  0  0  0  0
  -33.9398  -25.1213  -31.6140 C   0  0  0  0  0  0
  -37.6567  -25.4319  -32.4028 C   0  0  0  0  0  0
  -31.6033  -25.4038  -30.0141 O   0  0  0  0  0  0
  -31.5690  -26.1067  -27.0911 C   0  0  0  0  0  0
  -31.7819  -25.9276  -25.8705 O   0  5  0  0  0  0
  -30.4562  -26.3497  -27.6134 O   0  0  0  0  0  0
  -37.8106  -28.3498  -27.5146 H   0  0  0  0  0  0
  -36.9737  -28.2905  -29.0697 H   0  0  0  0  0  0
  -36.1010  -28.7792  -27.6158 H   0  0  0  0  0  0
  -36.4390  -26.4865  -26.6445 H   0  0  0  0  0  0
  -37.2930  -25.9761  -28.0642 H   0  0  0  0  0  0
  -34.1916  -26.5924  -26.5547 H   0  0  0  0  0  0
  -35.1692  -24.7509  -33.3594 H   0  0  0  0  0  0
  -33.0173  -24.8465  -32.1037 H   0  0  0  0  0  0
  -37.6504  -24.6922  -33.2046 H   0  0  0  0  0  0
  -37.8397  -26.4101  -32.8475 H   0  0  0  0  0  0
  -38.4789  -25.1964  -31.7269 H   0  0  0  0  0  0
  1  2  1  0  0  0
  1 18  1  0  0  0
  1 19  1  0  0  0
  1 20  1  0  0  0
  2  3  1  0  0  0
  2 21  1  0  0  0
  2 22  1  0  0  0
  3  8  1  0  0  0
  3  4  1  0  0  0
  4  5  2  0  0  0
  4 23  1  0  0  0
  5  6  1  0  0  0
  5 15  1  0  0  0
  6  7  1  0  0  0
  6 14  2  0  0  0
  7 12  2  0  0  0
  7  8  1  0  0  0
  8  9  2  0  0  0
  9 10  1  0  0  0
 10 11  2  0  0  0
 10 13  1  0  0  0
 11 12  1  0  0  0
 11 24  1  0  0  0
 12 25  1  0  0  0
 13 26  1  0  0  0
 13 27  1  0  0  0
 13 28  1  0  0  0
 15 16  1  0  0  0
 15 17  2  0  0  0
M  CHG  1  16  -1
M  END
> <s_m_entry_id>
27709

> <s_m_entry_name>
data_maestro.31

> <s_m_Source_Path>
C:\Users\olshana1\Git\GramNeg-Accumulation\Gram Negative Permeation - OmpF

> <s_m_Source_File>
data_maestro.csv

> <i_m_Source_File_Index>
31

> <s_m_job_name>
glide-dock_Nicaido_neutral

> <s_i_glide_gridfile>
3POX-grid

> <i_i_glide_lignum>
40

> <i_i_glide_rotatable_bonds>
2

> <r_i_docking_score>
-4.00966106522694

> <r_i_glide_ligand_efficiency>
-0.235862415601585

> <r_i_glide_ligand_efficiency_sa>
-0.606468686591785

> <r_i_glide_ligand_efficiency_ln>
-1.04603128115588

> <r_i_glide_gscore>
-4.00966106522694

> <r_i_glide_lipo>
-0.382326488768154

> <r_i_glide_hbond>
-0.20724661618011

> <r_i_glide_metal>
0

> <r_i_glide_rewards>
-1.96690123370855

> <r_i_glide_evdw>
-19.9442348480225

> <r_i_glide_ecoul>
-2.37316656112671

> <r_i_glide_erotb>
0

> <r_i_glide_esite>
-0.1

> <r_i_glide_emodel>
-34.0996544439095

> <r_i_glide_energy>
-22.3174014091492

> <r_i_glide_einternal>
0.817477107048035

> <i_i_glide_confnum>
1

> <i_i_glide_posenum>
114

> <r_i_glide_eff_state_penalty>
0

> <r_glide_res:A132_vdw>
-0.117607794993574

> <r_glide_res:A132_coul>
-22.2957945103173

> <r_glide_res:A132_hbond>
0

> <r_glide_res:A132_dist>
5.93064079199184

> <r_glide_res:A132_Eint>
-22.4134023053108

> <r_glide_res:A117_vdw>
-0.0200379867034215

> <r_glide_res:A117_coul>
16.0955496634173

> <r_glide_res:A117_hbond>
0

> <r_glide_res:A117_dist>
10.7092020196706

> <r_glide_res:A117_Eint>
16.0755116767139

> <r_glide_res:A113_vdw>
-0.0254386051474112

> <r_glide_res:A113_coul>
17.4776483718951

> <r_glide_res:A113_hbond>
0

> <r_glide_res:A113_dist>
8.68167629891144

> <r_glide_res:A113_Eint>
17.4522097667477

> <r_glide_res:A82_vdw>
-1.25584825236137

> <r_glide_res:A82_coul>
-41.7100915320949

> <r_glide_res:A82_hbond>
-0.0305049476035071

> <r_glide_res:A82_dist>
2.33767328608518

> <r_glide_res:A82_Eint>
-42.9964447320598

> <r_glide_res:A42_vdw>
-0.143973196752328

> <r_glide_res:A42_coul>
-46.9679095422722

> <r_glide_res:A42_hbond>
-0.176741668576603

> <r_glide_res:A42_dist>
1.81776628607197

> <r_glide_res:A42_Eint>
-47.2886244076012

> <r_glide_res:A16_vdw>
-3.32780038576576

> <r_glide_res:A16_coul>
-30.6741367486931

> <r_glide_res:A16_hbond>
0

> <r_glide_res:A16_dist>
2.45511928506175

> <r_glide_res:A16_Eint>
-34.0019371344589

> <s_m_source_file>
ligprep_Nicaido_neutral.maegz

> <i_m_source_file_index>
31

> <i_lp_mmshare_version>
58128

> <i_f3d_flags>
0

> <s_lp_Force_Field>
S-OPLS

> <r_lp_Energy>
25.048869

> <b_lp_Chiralities_Consistent>
1

> <s_lp_Variant>
Nalidixic acid-1

> <s_epik_input>
Tz1jMWMoQyg9TylbT0hdKVtjSF1uKFtDSDJdW0NIM10pYyhjMTIpbmMoW0NIM10pW2NIXVtjSF0y

> <s_epik_cmdline>
J2VwaWtfcHl0aG9uJywgJy1waHQnLCAnMC4wJywgJy1waCcsICc3LjQnLCAnLW50JywgJy1tYScsICc1MDAnLCAnLWltYWUnLCAnPGluZmlsZS5tYWU+JywgJy1vbWFlJywgJzxvdXRmaWxlLm1hZT4n

> <r_lp_tautomer_probability>
1

> <r_epik_Ionization_Penalty>
  0.0215

> <r_epik_Ionization_Penalty_Charging>
  0.0215

> <r_epik_Ionization_Penalty_Neutral>
  0.0000

> <r_epik_State_Penalty>
  0.0000

> <r_epik_Charging_Adjusted_Penalty>
0.0214516940307923

> <i_epik_Tot_Q>
-1

> <i_epik_Tot_abs_Q>
1

> <s_m_subgroup_title>
glide-dock_Nicaido_neutral_pv1

> <s_m_subgroupid>
glide-dock_Nicaido_neutral_pv1

> <b_m_subgroup_collapsed>
0

$$$$
Cephalothin
                    3D
 Schrodinger Suite 2022-2.
 41 43  0  0  1  0            999 V2000
  -25.5681  -24.7147  -18.4128 C   0  0  0  0  0  0
  -26.5428  -23.5511  -18.5345 C   0  0  0  0  0  0
  -27.6137  -23.8610  -19.2870 O   0  0  0  0  0  0
  -28.6692  -22.9194  -19.4598 C   0  0  0  0  0  0
  -28.3848  -21.8858  -20.5467 C   0  0  0  0  0  0
  -28.3899  -22.1868  -21.8720 C   0  0  0  0  0  0
  -28.1811  -21.2255  -22.8705 N   0  0  0  0  0  0
  -27.4272  -20.0156  -22.6008 C   0  0  1  0  0  0
  -27.6112  -19.6601  -24.0962 C   0  0  2  0  0  0
  -28.1977  -21.0902  -24.2490 C   0  0  0  0  0  0
  -28.4747  -21.8518  -25.1557 O   0  0  0  0  0  0
  -26.3459  -19.4203  -24.8229 N   0  0  0  0  0  0
  -25.3703  -20.2939  -25.1527 C   0  0  0  0  0  0
  -24.2330  -19.7739  -26.0340 C   0  0  0  0  0  0
  -22.9133  -19.8642  -25.3379 C   0  0  0  0  0  0
  -22.4884  -19.1516  -24.2459 C   0  0  0  0  0  0
  -21.1691  -19.4973  -23.8313 C   0  0  0  0  0  0
  -20.6025  -20.4658  -24.6174 C   0  0  0  0  0  0
  -21.6789  -20.9678  -25.8917 S   0  0  0  0  0  0
  -25.3593  -21.4792  -24.8137 O   0  0  0  0  0  0
  -28.2921  -19.1662  -21.2283 S   0  0  0  0  0  0
  -28.1098  -20.4847  -20.0000 C   0  0  0  0  0  0
  -28.5943  -23.6322  -22.3901 C   0  0  0  0  0  0
  -27.5666  -24.3493  -22.4122 O   0  5  0  0  0  0
  -29.7233  -23.9504  -22.8135 O   0  0  0  0  0  0
  -26.3224  -22.4727  -17.9856 O   0  0  0  0  0  0
  -24.8511  -24.6936  -19.2319 H   0  0  0  0  0  0
  -25.0233  -24.6457  -17.4706 H   0  0  0  0  0  0
  -26.1050  -25.6631  -18.4290 H   0  0  0  0  0  0
  -28.9035  -22.4275  -18.5152 H   0  0  0  0  0  0
  -29.5678  -23.4698  -19.7385 H   0  0  0  0  0  0
  -26.3963  -20.2510  -22.3292 H   0  0  0  0  0  0
  -28.3390  -18.8595  -24.2344 H   0  0  0  0  0  0
  -26.1896  -18.4610  -25.1182 H   0  0  0  0  0  0
  -24.4215  -18.7587  -26.3882 H   0  0  0  0  0  0
  -24.2053  -20.4026  -26.9211 H   0  0  0  0  0  0
  -23.0750  -18.3988  -23.7384 H   0  0  0  0  0  0
  -20.6913  -19.0225  -22.9872 H   0  0  0  0  0  0
  -19.6199  -20.9037  -24.5326 H   0  0  0  0  0  0
  -28.7687  -20.2622  -19.1632 H   0  0  0  0  0  0
  -27.0924  -20.4581  -19.6105 H   0  0  0  0  0  0
  1  2  1  0  0  0
  1 27  1  0  0  0
  1 28  1  0  0  0
  1 29  1  0  0  0
  2  3  1  0  0  0
  2 26  2  0  0  0
  3  4  1  0  0  0
  4  5  1  0  0  0
  4 30  1  0  0  0
  4 31  1  0  0  0
  5 22  1  0  0  0
  5  6  2  0  0  0
  6  7  1  0  0  0
  6 23  1  0  0  0
  7 10  1  0  0  0
  7  8  1  0  0  0
  8  9  1  0  0  0
  8 21  1  0  0  0
  8 32  1  0  0  0
  9 10  1  0  0  0
  9 12  1  0  0  0
  9 33  1  0  0  0
 10 11  2  0  0  0
 12 13  1  0  0  0
 12 34  1  0  0  0
 13 14  1  0  0  0
 13 20  2  0  0  0
 14 15  1  0  0  0
 14 35  1  0  0  0
 14 36  1  0  0  0
 15 19  1  0  0  0
 15 16  2  0  0  0
 16 17  1  0  0  0
 16 37  1  0  0  0
 17 18  2  0  0  0
 17 38  1  0  0  0
 18 19  1  0  0  0
 18 39  1  0  0  0
 21 22  1  0  0  0
 22 40  1  0  0  0
 22 41  1  0  0  0
 23 24  1  0  0  0
 23 25  2  0  0  0
M  CHG  1  24  -1
M  END
> <s_m_entry_id>
27710

> <s_m_entry_name>
data_maestro.33

> <s_m_Source_Path>
C:\Users\olshana1\Git\GramNeg-Accumulation\Gram Negative Permeation - OmpF

> <s_m_Source_File>
data_maestro.csv

> <i_m_Source_File_Index>
33

> <s_m_job_name>
glide-dock_Nicaido_neutral

> <s_i_glide_gridfile>
3POX-grid

> <i_i_glide_lignum>
42

> <i_i_glide_rotatable_bonds>
8

> <r_i_docking_score>
-4.00001065798488

> <r_i_glide_ligand_efficiency>
-0.153846563768649

> <r_i_glide_ligand_efficiency_sa>
-0.455769839807626

> <r_i_glide_ligand_efficiency_ln>
-0.939389377922249

> <r_i_glide_gscore>
-4.00001065798488

> <r_i_glide_lipo>
-0.0365941232861784

> <r_i_glide_hbond>
-0.706620106483636

> <r_i_glide_metal>
0

> <r_i_glide_rewards>
-0.712775035323105

> <r_i_glide_evdw>
-26.9458560943604

> <r_i_glide_ecoul>
-8.72285747528076

> <r_i_glide_erotb>
0.625287901339008

> <r_i_glide_esite>
-0.513587868220837

> <r_i_glide_emodel>
-53.2332581573378

> <r_i_glide_energy>
-35.6687135696411

> <r_i_glide_einternal>
6.89588403701782

> <i_i_glide_confnum>
22

> <i_i_glide_posenum>
328

> <r_i_glide_eff_state_penalty>
0

> <r_glide_res:A132_vdw>
-2.26767307093942

> <r_glide_res:A132_coul>
-40.0999242572329

> <r_glide_res:A132_hbond>
-0.0938693591091288

> <r_glide_res:A132_dist>
2.2561764079484

> <r_glide_res:A132_Eint>
-42.4614666872814

> <r_glide_res:A117_vdw>
-2.68472835342523

> <r_glide_res:A117_coul>
8.70161761212398

> <r_glide_res:A117_hbond>
-0.0822695002880807

> <r_glide_res:A117_dist>
2.20399271427987

> <r_glide_res:A117_Eint>
5.93461975841067

> <r_glide_res:A113_vdw>
-2.00421770092175

> <r_glide_res:A113_coul>
24.3245664878046

> <r_glide_res:A113_hbond>
0

> <r_glide_res:A113_dist>
2.21148161213311

> <r_glide_res:A113_Eint>
22.3203487868829

> <r_glide_res:A82_vdw>
4.01464370636976

> <r_glide_res:A82_coul>
-59.764035280642

> <r_glide_res:A82_hbond>
-0.389796390290181

> <r_glide_res:A82_dist>
1.57959278058036

> <r_glide_res:A82_Eint>
-56.1391879645624

> <r_glide_res:A42_vdw>
-2.11936679143822

> <r_glide_res:A42_coul>
-42.0108583909174

> <r_glide_res:A42_hbond>
-0.140684856796246

> <r_glide_res:A42_dist>
2.23174610553912

> <r_glide_res:A42_Eint>
-44.2709100391519

> <r_glide_res:A16_vdw>
-0.418264714909378

> <r_glide_res:A16_coul>
-24.532530446819

> <r_glide_res:A16_hbond>
0

> <r_glide_res:A16_dist>
3.54503068217184

> <r_glide_res:A16_Eint>
-24.9507951617284

> <s_m_source_file>
ligprep_Nicaido_neutral.maegz

> <i_m_source_file_index>
33

> <i_lp_mmshare_version>
58128

> <i_f3d_flags>
0

> <s_lp_Force_Field>
S-OPLS

> <r_lp_Energy>
31.39315

> <b_lp_Chiralities_Consistent>
1

> <s_lp_Variant>
Cephalothin-1

> <s_epik_input>
W0NIM11DKD1PKU9bQ0gyXUMoPUMxQyg9TylbT0hdKVtDSDJdU1tDQEBIXShOMTIpW0NASF0oQzI9TylbTkhdQyg9TylbQ0gyXWMzW2NIXVtjSF1bY0hdczM=

> <s_epik_cmdline>
J2VwaWtfcHl0aG9uJywgJy1waHQnLCAnMC4wJywgJy1waCcsICc3LjQnLCAnLW50JywgJy1tYScsICc1MDAnLCAnLWltYWUnLCAnPGluZmlsZS5tYWU+JywgJy1vbWFlJywgJzxvdXRmaWxlLm1hZT4n

> <r_lp_tautomer_probability>
1

> <r_epik_Ionization_Penalty>
  0.0000

> <r_epik_Ionization_Penalty_Charging>
  0.0000

> <r_epik_Ionization_Penalty_Neutral>
  0.0000

> <r_epik_State_Penalty>
  0.0000

> <r_epik_Charging_Adjusted_Penalty>
6.16900125885048e-06

> <i_epik_Tot_Q>
-1

> <i_epik_Tot_abs_Q>
1

> <s_epik_Chemistry_Notes>
This compound has an ester and may undergo hydrolysis at high or low pH. This compound contains an acetal/aminal-like group ( X-CH(R)-Y where X, Y are N, S, or O) that may be acid/base labile, releasing an aldehyde.

> <s_m_subgroup_title>
glide-dock_Nicaido_neutral_pv1

> <s_m_subgroupid>
glide-dock_Nicaido_neutral_pv1

> <b_m_subgroup_collapsed>
0

$$$$
Cephalothin
                    3D
 Schrodinger Suite 2022-2.
 41 43  0  0  1  0            999 V2000
  -32.2077  -23.7833  -21.5886 C   0  0  0  0  0  0
  -30.8989  -23.7502  -20.8134 C   0  0  0  0  0  0
  -30.3210  -22.5464  -20.8282 O   0  0  0  0  0  0
  -29.1015  -22.3284  -20.1299 C   0  0  0  0  0  0
  -28.1831  -21.5040  -20.9941 C   0  0  0  0  0  0
  -27.3161  -22.0383  -21.8754 C   0  0  0  0  0  0
  -26.5843  -21.1685  -22.6801 N   0  0  0  0  0  0
  -25.7964  -20.0813  -22.1087 C   0  0  1  0  0  0
  -25.6629  -19.6114  -23.5819 C   0  0  2  0  0  0
  -25.9837  -21.0936  -23.9146 C   0  0  0  0  0  0
  -25.8300  -21.8938  -24.8128 O   0  0  0  0  0  0
  -24.3309  -19.1497  -23.9936 N   0  0  0  0  0  0
  -23.1475  -19.7676  -23.8292 C   0  0  0  0  0  0
  -21.9214  -19.0761  -24.4271 C   0  0  0  0  0  0
  -20.8512  -20.0638  -24.7721 C   0  0  0  0  0  0
  -20.6903  -20.7497  -25.9494 C   0  0  0  0  0  0
  -19.5463  -21.6007  -25.9460 C   0  0  0  0  0  0
  -18.8620  -21.5684  -24.7600 C   0  0  0  0  0  0
  -19.6126  -20.4893  -23.6152 S   0  0  0  0  0  0
  -23.0203  -20.8436  -23.2420 O   0  0  0  0  0  0
  -26.7431  -19.1767  -20.8134 S   0  0  0  0  0  0
  -28.3601  -19.9978  -20.8989 C   0  0  0  0  0  0
  -27.0451  -23.5621  -22.0162 C   0  0  0  0  0  0
  -25.8931  -23.9473  -21.7233 O   0  5  0  0  0  0
  -27.9790  -24.2998  -22.4135 O   0  0  0  0  0  0
  -30.4638  -24.7501  -20.2446 O   0  0  0  0  0  0
  -32.0496  -23.4653  -22.6192 H   0  0  0  0  0  0
  -32.6223  -24.7910  -21.5873 H   0  0  0  0  0  0
  -32.9324  -23.1145  -21.1210 H   0  0  0  0  0  0
  -28.6066  -23.2618  -19.8607 H   0  0  0  0  0  0
  -29.2612  -21.7901  -19.2014 H   0  0  0  0  0  0
  -24.8833  -20.4786  -21.6617 H   0  0  0  0  0  0
  -26.4499  -18.9062  -23.8586 H   0  0  0  0  0  0
  -24.3454  -18.2578  -24.5017 H   0  0  0  0  0  0
  -21.5431  -18.3529  -23.7042 H   0  0  0  0  0  0
  -22.2086  -18.5098  -25.3147 H   0  0  0  0  0  0
  -21.3393  -20.6596  -26.8085 H   0  0  0  0  0  0
  -19.2698  -22.1967  -26.8033 H   0  0  0  0  0  0
  -17.9651  -22.1051  -24.4887 H   0  0  0  0  0  0
  -28.9069  -19.6438  -21.7731 H   0  0  0  0  0  0
  -28.9460  -19.7178  -20.0237 H   0  0  0  0  0  0
  1  2  1  0  0  0
  1 27  1  0  0  0
  1 28  1  0  0  0
  1 29  1  0  0  0
  2  3  1  0  0  0
  2 26  2  0  0  0
  3  4  1  0  0  0
  4  5  1  0  0  0
  4 30  1  0  0  0
  4 31  1  0  0  0
  5 22  1  0  0  0
  5  6  2  0  0  0
  6  7  1  0  0  0
  6 23  1  0  0  0
  7 10  1  0  0  0
  7  8  1  0  0  0
  8  9  1  0  0  0
  8 21  1  0  0  0
  8 32  1  0  0  0
  9 10  1  0  0  0
  9 12  1  0  0  0
  9 33  1  0  0  0
 10 11  2  0  0  0
 12 13  1  0  0  0
 12 34  1  0  0  0
 13 14  1  0  0  0
 13 20  2  0  0  0
 14 15  1  0  0  0
 14 35  1  0  0  0
 14 36  1  0  0  0
 15 19  1  0  0  0
 15 16  2  0  0  0
 16 17  1  0  0  0
 16 37  1  0  0  0
 17 18  2  0  0  0
 17 38  1  0  0  0
 18 19  1  0  0  0
 18 39  1  0  0  0
 21 22  1  0  0  0
 22 40  1  0  0  0
 22 41  1  0  0  0
 23 24  1  0  0  0
 23 25  2  0  0  0
M  CHG  1  24  -1
M  END
> <s_m_entry_id>
27711

> <s_m_entry_name>
data_maestro.33

> <s_m_Source_Path>
C:\Users\olshana1\Git\GramNeg-Accumulation\Gram Negative Permeation - OmpF

> <s_m_Source_File>
data_maestro.csv

> <i_m_Source_File_Index>
33

> <s_m_job_name>
glide-dock_Nicaido_neutral

> <s_i_glide_gridfile>
3POX-grid

> <i_i_glide_lignum>
42

> <i_i_glide_rotatable_bonds>
8

> <r_i_docking_score>
-3.99889690551853

> <r_i_glide_ligand_efficiency>
-0.153803727135328

> <r_i_glide_ligand_efficiency_sa>
-0.455642936449966

> <r_i_glide_ligand_efficiency_ln>
-0.939127816810045

> <r_i_glide_gscore>
-3.99889690551853

> <r_i_glide_lipo>
-0.258966737094852

> <r_i_glide_hbond>
-0.710432278354771

> <r_i_glide_metal>
0

> <r_i_glide_rewards>
-0.712947625726989

> <r_i_glide_evdw>
-20.3414630889893

> <r_i_glide_ecoul>
-9.7031946182251

> <r_i_glide_erotb>
0.625287901339008

> <r_i_glide_esite>
-0.469285818497695

> <r_i_glide_emodel>
-48.0611049695024

> <r_i_glide_energy>
-30.0446577072144

> <r_i_glide_einternal>
5.98136329650879

> <i_i_glide_confnum>
125

> <i_i_glide_posenum>
193

> <r_i_glide_eff_state_penalty>
0

> <r_glide_res:A132_vdw>
-0.279596763861103

> <r_glide_res:A132_coul>
-50.2557586605343

> <r_glide_res:A132_hbond>
-0.19688880189453

> <r_glide_res:A132_dist>
1.95395745953906

> <r_glide_res:A132_Eint>
-50.7322442262899

> <r_glide_res:A117_vdw>
-1.17111935853966

> <r_glide_res:A117_coul>
6.9596999097992

> <r_glide_res:A117_hbond>
-0.16

> <r_glide_res:A117_dist>
1.70225555070493

> <r_glide_res:A117_Eint>
5.62858055125953

> <r_glide_res:A113_vdw>
-1.58407759122415

> <r_glide_res:A113_coul>
21.3652551374884

> <r_glide_res:A113_hbond>
0

> <r_glide_res:A113_dist>
2.25794919191769

> <r_glide_res:A113_Eint>
19.7811775462642

> <r_glide_res:A82_vdw>
0.5337861549763

> <r_glide_res:A82_coul>
-50.9831753021973

> <r_glide_res:A82_hbond>
-0.257598923911675

> <r_glide_res:A82_dist>
1.75064865936405

> <r_glide_res:A82_Eint>
-50.7069880711326

> <r_glide_res:A42_vdw>
0.192385023439006

> <r_glide_res:A42_coul>
-35.0264766324186

> <r_glide_res:A42_hbond>
-0.0959445525485657

> <r_glide_res:A42_dist>
2.01700048418216

> <r_glide_res:A42_Eint>
-34.9300361615282

> <r_glide_res:A16_vdw>
-0.155330649372488

> <r_glide_res:A16_coul>
-18.9657437080182

> <r_glide_res:A16_hbond>
0

> <r_glide_res:A16_dist>
5.60245596021153

> <r_glide_res:A16_Eint>
-19.1210743573907

> <s_m_source_file>
ligprep_Nicaido_neutral.maegz

> <i_m_source_file_index>
33

> <i_lp_mmshare_version>
58128

> <i_f3d_flags>
0

> <s_lp_Force_Field>
S-OPLS

> <r_lp_Energy>
31.39315

> <b_lp_Chiralities_Consistent>
1

> <s_lp_Variant>
Cephalothin-1

> <s_epik_input>
W0NIM11DKD1PKU9bQ0gyXUMoPUMxQyg9TylbT0hdKVtDSDJdU1tDQEBIXShOMTIpW0NASF0oQzI9TylbTkhdQyg9TylbQ0gyXWMzW2NIXVtjSF1bY0hdczM=

> <s_epik_cmdline>
J2VwaWtfcHl0aG9uJywgJy1waHQnLCAnMC4wJywgJy1waCcsICc3LjQnLCAnLW50JywgJy1tYScsICc1MDAnLCAnLWltYWUnLCAnPGluZmlsZS5tYWU+JywgJy1vbWFlJywgJzxvdXRmaWxlLm1hZT4n

> <r_lp_tautomer_probability>
1

> <r_epik_Ionization_Penalty>
  0.0000

> <r_epik_Ionization_Penalty_Charging>
  0.0000

> <r_epik_Ionization_Penalty_Neutral>
  0.0000

> <r_epik_State_Penalty>
  0.0000

> <r_epik_Charging_Adjusted_Penalty>
6.16900125885048e-06

> <i_epik_Tot_Q>
-1

> <i_epik_Tot_abs_Q>
1

> <s_epik_Chemistry_Notes>
This compound has an ester and may undergo hydrolysis at high or low pH. This compound contains an acetal/aminal-like group ( X-CH(R)-Y where X, Y are N, S, or O) that may be acid/base labile, releasing an aldehyde.

> <s_m_subgroup_title>
glide-dock_Nicaido_neutral_pv1

> <s_m_subgroupid>
glide-dock_Nicaido_neutral_pv1

> <b_m_subgroup_collapsed>
0

$$$$
Cefamandole
                    3D
 Schrodinger Suite 2022-2.
 48 51  0  0  1  0            999 V2000
  -31.3164  -17.7050  -23.8546 C   0  0  0  0  0  0
  -30.5596  -18.5264  -24.7751 N   0  0  0  0  0  0
  -30.5586  -19.8429  -25.0334 C   0  0  0  0  0  0
  -31.6199  -21.0380  -24.2975 S   0  0  0  0  0  0
  -31.0197  -21.0811  -22.5754 C   0  0  0  0  0  0
  -29.5092  -20.9752  -22.3523 C   0  0  0  0  0  0
  -28.6458  -22.0019  -22.5810 C   0  0  0  0  0  0
  -27.2807  -21.9411  -22.2492 N   0  0  0  0  0  0
  -26.5679  -20.7076  -21.9675 C   0  0  2  0  0  0
  -25.3927  -21.5853  -21.4863 C   0  0  2  0  0  0
  -26.1796  -22.7673  -22.1100 C   0  0  0  0  0  0
  -25.9908  -23.9390  -22.3702 O   0  0  0  0  0  0
  -25.3386  -21.5791  -20.0270 N   0  0  0  0  0  0
  -24.6951  -22.4284  -19.2164 C   0  0  0  0  0  0
  -24.8185  -22.1132  -17.7116 C   0  0  2  0  0  0
  -24.1045  -20.7999  -17.3934 C   0  0  0  0  0  0
  -24.7752  -19.5701  -17.5836 C   0  0  0  0  0  0
  -24.1345  -18.3505  -17.2929 C   0  0  0  0  0  0
  -22.8123  -18.3489  -16.8123 C   0  0  0  0  0  0
  -22.1331  -19.5677  -16.6231 C   0  0  0  0  0  0
  -22.7745  -20.7883  -16.9143 C   0  0  0  0  0  0
  -24.3666  -23.1990  -16.9207 O   0  0  0  0  0  0
  -24.0593  -23.4001  -19.6325 O   0  0  0  0  0  0
  -27.5467  -19.6990  -20.8100 S   0  0  0  0  0  0
  -29.0723  -19.6270  -21.7737 C   0  0  0  0  0  0
  -29.1000  -23.3643  -23.1904 C   0  0  0  0  0  0
  -29.1694  -23.3981  -24.4417 O   0  5  0  0  0  0
  -29.1690  -24.3481  -22.4133 O   0  0  0  0  0  0
  -29.7100  -20.1251  -26.0135 N   0  0  0  0  0  0
  -29.1683  -18.8999  -26.3439 N   0  0  0  0  0  0
  -29.6682  -17.9497  -25.6140 N   0  0  0  0  0  0
  -31.9889  -18.3121  -23.2499 H   0  0  0  0  0  0
  -30.6291  -17.1707  -23.1972 H   0  0  0  0  0  0
  -31.9042  -16.9754  -24.4129 H   0  0  0  0  0  0
  -31.3728  -22.0101  -22.1269 H   0  0  0  0  0  0
  -31.5336  -20.2973  -22.0197 H   0  0  0  0  0  0
  -26.3522  -20.1594  -22.8876 H   0  0  0  0  0  0
  -24.4497  -21.3319  -21.9715 H   0  0  0  0  0  0
  -25.8639  -20.8330  -19.5896 H   0  0  0  0  0  0
  -25.8788  -21.9878  -17.4827 H   0  0  0  0  0  0
  -25.7973  -19.5530  -17.9361 H   0  0  0  0  0  0
  -24.6635  -17.4172  -17.4248 H   0  0  0  0  0  0
  -22.3280  -17.4120  -16.5760 H   0  0  0  0  0  0
  -21.1192  -19.5647  -16.2512 H   0  0  0  0  0  0
  -22.2395  -21.7149  -16.7672 H   0  0  0  0  0  0
  -24.6116  -23.0187  -16.0248 H   0  0  0  0  0  0
  -28.9313  -18.9154  -22.5854 H   0  0  0  0  0  0
  -29.8385  -19.2197  -21.1130 H   0  0  0  0  0  0
  1  2  1  0  0  0
  1 32  1  0  0  0
  1 33  1  0  0  0
  1 34  1  0  0  0
  2 31  1  0  0  0
  2  3  1  0  0  0
  3  4  1  0  0  0
  3 29  2  0  0  0
  4  5  1  0  0  0
  5  6  1  0  0  0
  5 35  1  0  0  0
  5 36  1  0  0  0
  6 25  1  0  0  0
  6  7  2  0  0  0
  7  8  1  0  0  0
  7 26  1  0  0  0
  8 11  1  0  0  0
  8  9  1  0  0  0
  9 10  1  0  0  0
  9 24  1  0  0  0
  9 37  1  0  0  0
 10 11  1  0  0  0
 10 13  1  0  0  0
 10 38  1  0  0  0
 11 12  2  0  0  0
 13 14  1  0  0  0
 13 39  1  0  0  0
 14 15  1  0  0  0
 14 23  2  0  0  0
 15 16  1  0  0  0
 15 22  1  0  0  0
 15 40  1  0  0  0
 16 21  1  0  0  0
 16 17  2  0  0  0
 17 18  1  0  0  0
 17 41  1  0  0  0
 18 19  2  0  0  0
 18 42  1  0  0  0
 19 20  1  0  0  0
 19 43  1  0  0  0
 20 21  2  0  0  0
 20 44  1  0  0  0
 21 45  1  0  0  0
 22 46  1  0  0  0
 24 25  1  0  0  0
 25 47  1  0  0  0
 25 48  1  0  0  0
 26 27  1  0  0  0
 26 28  2  0  0  0
 29 30  1  0  0  0
 30 31  2  0  0  0
M  CHG  1  27  -1
M  END
> <s_m_entry_id>
27712

> <s_m_entry_name>
data_maestro.9

> <s_m_Source_Path>
C:\Users\olshana1\Git\GramNeg-Accumulation\Gram Negative Permeation - OmpF

> <s_m_Source_File>
data_maestro.csv

> <i_m_Source_File_Index>
9

> <s_m_job_name>
glide-dock_Nicaido_neutral

> <s_i_glide_gridfile>
3POX-grid

> <i_i_glide_lignum>
12

> <i_i_glide_rotatable_bonds>
9

> <r_i_docking_score>
-3.98702941463221

> <r_i_glide_ligand_efficiency>
-0.12861385208491

> <r_i_glide_ligand_efficiency_sa>
-0.404025066106593

> <r_i_glide_ligand_efficiency_ln>
-0.899197320776926

> <r_i_glide_gscore>
-3.98702941463221

> <r_i_glide_lipo>
0

> <r_i_glide_hbond>
-0.518424120132215

> <r_i_glide_metal>
0

> <r_i_glide_rewards>
-0.262513171289069

> <r_i_glide_evdw>
-32.0459480285645

> <r_i_glide_ecoul>
-10.0546360015869

> <r_i_glide_erotb>
0.567285116635731

> <r_i_glide_esite>
-0.662884438180403

> <r_i_glide_emodel>
-61.4106331761954

> <r_i_glide_energy>
-42.1005840301514

> <r_i_glide_einternal>
6.70333433151245

> <i_i_glide_confnum>
113

> <i_i_glide_posenum>
314

> <r_i_glide_eff_state_penalty>
0

> <r_glide_res:A132_vdw>
-1.698995581809

> <r_glide_res:A132_coul>
-42.6859696913149

> <r_glide_res:A132_hbond>
-0.0453507099739336

> <r_glide_res:A132_dist>
2.30554022695667

> <r_glide_res:A132_Eint>
-44.4303159830978

> <r_glide_res:A117_vdw>
-4.59843091420965

> <r_glide_res:A117_coul>
20.6074648418113

> <r_glide_res:A117_hbond>
0

> <r_glide_res:A117_dist>
2.67665146811699

> <r_glide_res:A117_Eint>
16.0090339276016

> <r_glide_res:A113_vdw>
-2.46871930305932

> <r_glide_res:A113_coul>
20.1093814983231

> <r_glide_res:A113_hbond>
0

> <r_glide_res:A113_dist>
2.75058894181644

> <r_glide_res:A113_Eint>
17.6406621952638

> <r_glide_res:A82_vdw>
0.522966456077973

> <r_glide_res:A82_coul>
-55.2298973085697

> <r_glide_res:A82_hbond>
-0.3059517715684

> <r_glide_res:A82_dist>
1.76469831229953

> <r_glide_res:A82_Eint>
-55.0128826240601

> <r_glide_res:A42_vdw>
-1.62257654633407

> <r_glide_res:A42_coul>
-43.4597897544125

> <r_glide_res:A42_hbond>
-0.167121638589882

> <r_glide_res:A42_dist>
2.13729223376448

> <r_glide_res:A42_Eint>
-45.2494879393364

> <r_glide_res:A16_vdw>
-1.13311703170156

> <r_glide_res:A16_coul>
-31.6231098338419

> <r_glide_res:A16_hbond>
0

> <r_glide_res:A16_dist>
2.41816466239594

> <r_glide_res:A16_Eint>
-32.7562268655435

> <s_m_source_file>
ligprep_Nicaido_neutral.maegz

> <i_m_source_file_index>
9

> <i_lp_mmshare_version>
58128

> <i_f3d_flags>
0

> <s_lp_Force_Field>
S-OPLS

> <r_lp_Energy>
50.610726

> <b_lp_Chiralities_Consistent>
1

> <s_lp_Variant>
Cefamandole-1

> <s_epik_input>
bjFubmMobjFbQ0gzXSlTW0NIMl1DKD1DMkMoPU8pW09IXSlbQ0gyXVNbQ0BIXShOMjMpW0NASF0oQzM9TylbTkhdQyg9TylbQ0BASF0oW09IXSljNFtjSF1bY0hdW2NIXVtjSF1bY0hdNA==

> <s_epik_cmdline>
J2VwaWtfcHl0aG9uJywgJy1waHQnLCAnMC4wJywgJy1waCcsICc3LjQnLCAnLW50JywgJy1tYScsICc1MDAnLCAnLWltYWUnLCAnPGluZmlsZS5tYWU+JywgJy1vbWFlJywgJzxvdXRmaWxlLm1hZT4n

> <r_lp_tautomer_probability>
1

> <r_epik_Ionization_Penalty>
  0.0002

> <r_epik_Ionization_Penalty_Charging>
  0.0000

> <r_epik_Ionization_Penalty_Neutral>
  0.0002

> <r_epik_State_Penalty>
  0.0000

> <r_epik_Charging_Adjusted_Penalty>
8.65070171415913e-06

> <i_epik_Tot_Q>
-1

> <i_epik_Tot_abs_Q>
1

> <s_epik_Chemistry_Notes>
This compound contains an acetal/aminal-like group ( X-CH(R)-Y where X, Y are N, S, or O) that may be acid/base labile, releasing an aldehyde.

> <s_m_subgroup_title>
glide-dock_Nicaido_neutral_pv1

> <s_m_subgroupid>
glide-dock_Nicaido_neutral_pv1

> <b_m_subgroup_collapsed>
0

$$$$
Cefotaxime
                    3D
 Schrodinger Suite 2022-2.
 46 48  0  0  1  0            999 V2000
  -32.2624  -16.8322  -26.8982 C   0  0  0  0  0  0
  -31.3158  -17.9788  -26.5738 C   0  0  0  0  0  0
  -30.1725  -17.5498  -26.0245 O   0  0  0  0  0  0
  -29.1499  -18.4569  -25.6411 C   0  0  0  0  0  0
  -29.4909  -19.2411  -24.3738 C   0  0  0  0  0  0
  -29.2996  -20.5824  -24.2629 C   0  0  0  0  0  0
  -29.5858  -21.2874  -23.0849 N   0  0  0  0  0  0
  -30.5744  -20.8031  -22.1461 C   0  0  1  0  0  0
  -30.3644  -22.0987  -21.3350 C   0  0  2  0  0  0
  -29.3960  -22.5184  -22.4818 C   0  0  0  0  0  0
  -28.7424  -23.4975  -22.7884 O   0  0  0  0  0  0
  -31.6449  -22.8201  -21.2290 N   0  0  0  0  0  0
  -32.0462  -23.9753  -21.7999 C   0  0  0  0  0  0
  -33.5443  -24.2199  -21.6672 C   0  0  0  0  0  0
  -33.9997  -25.5432  -22.1992 C   0  0  0  0  0  0
  -34.7665  -26.3967  -21.4341 C   0  0  0  0  0  0
  -35.1705  -27.8668  -22.2817 S   0  0  0  0  0  0
  -34.2592  -27.2765  -23.6608 C   0  0  0  0  0  0
  -34.1128  -28.0345  -24.8094 N   0  0  0  0  0  0
  -33.7221  -26.0713  -23.4743 N   0  0  0  0  0  0
  -34.3034  -23.3451  -21.1260 N   0  0  0  0  0  0
  -35.6589  -23.7007  -21.1037 O   0  0  0  0  0  0
  -36.3341  -22.7569  -20.2872 C   0  0  0  0  0  0
  -31.3003  -24.7495  -22.4007 O   0  0  0  0  0  0
  -30.0310  -19.1556  -21.6162 S   0  0  0  0  0  0
  -30.0810  -18.3794  -23.2532 C   0  0  0  0  0  0
  -28.7070  -21.4351  -25.4158 C   0  0  0  0  0  0
  -27.5838  -21.9495  -25.2132 O   0  5  0  0  0  0
  -29.4475  -21.6071  -26.4132 O   0  0  0  0  0  0
  -31.6136  -19.1494  -26.8135 O   0  0  0  0  0  0
  -31.7793  -16.1243  -27.5717 H   0  0  0  0  0  0
  -33.1691  -17.2040  -27.3741 H   0  0  0  0  0  0
  -32.5388  -16.3060  -25.9846 H   0  0  0  0  0  0
  -28.2527  -17.8744  -25.4345 H   0  0  0  0  0  0
  -28.9018  -19.0993  -26.4837 H   0  0  0  0  0  0
  -31.5532  -20.7458  -22.6268 H   0  0  0  0  0  0
  -29.8849  -21.9110  -20.3746 H   0  0  0  0  0  0
  -32.3544  -22.3272  -20.7014 H   0  0  0  0  0  0
  -35.1189  -26.2375  -20.4241 H   0  0  0  0  0  0
  -33.3889  -27.8084  -25.4811 H   0  0  0  0  0  0
  -34.3556  -29.0136  -24.7935 H   0  0  0  0  0  0
  -37.3953  -23.0011  -20.2458 H   0  0  0  0  0  0
  -35.9483  -22.7693  -19.2659 H   0  0  0  0  0  0
  -36.2360  -21.7446  -20.6834 H   0  0  0  0  0  0
  -29.5685  -17.4212  -23.1968 H   0  0  0  0  0  0
  -31.1194  -18.1571  -23.4965 H   0  0  0  0  0  0
  1  2  1  0  0  0
  1 31  1  0  0  0
  1 32  1  0  0  0
  1 33  1  0  0  0
  2  3  1  0  0  0
  2 30  2  0  0  0
  3  4  1  0  0  0
  4  5  1  0  0  0
  4 34  1  0  0  0
  4 35  1  0  0  0
  5 26  1  0  0  0
  5  6  2  0  0  0
  6  7  1  0  0  0
  6 27  1  0  0  0
  7 10  1  0  0  0
  7  8  1  0  0  0
  8  9  1  0  0  0
  8 25  1  0  0  0
  8 36  1  0  0  0
  9 10  1  0  0  0
  9 12  1  0  0  0
  9 37  1  0  0  0
 10 11  2  0  0  0
 12 13  1  0  0  0
 12 38  1  0  0  0
 13 14  1  0  0  0
 13 24  2  0  0  0
 14 15  1  0  0  0
 14 21  2  3  0  0
 15 20  1  0  0  0
 15 16  2  0  0  0
 16 17  1  0  0  0
 16 39  1  0  0  0
 17 18  1  0  0  0
 18 19  1  0  0  0
 18 20  2  0  0  0
 19 40  1  0  0  0
 19 41  1  0  0  0
 21 22  1  0  0  0
 22 23  1  0  0  0
 23 42  1  0  0  0
 23 43  1  0  0  0
 23 44  1  0  0  0
 25 26  1  0  0  0
 26 45  1  0  0  0
 26 46  1  0  0  0
 27 28  1  0  0  0
 27 29  2  0  0  0
M  CHG  1  28  -1
M  END
> <s_m_entry_id>
27713

> <s_m_entry_name>
data_maestro.6

> <s_m_Source_Path>
C:\Users\olshana1\Git\GramNeg-Accumulation\Gram Negative Permeation - OmpF

> <s_m_Source_File>
data_maestro.csv

> <i_m_Source_File_Index>
6

> <s_m_job_name>
glide-dock_Nicaido_neutral

> <s_i_glide_gridfile>
3POX-grid

> <i_i_glide_lignum>
7

> <i_i_glide_rotatable_bonds>
9

> <r_i_docking_score>
-3.98543677110034

> <r_i_glide_ligand_efficiency>
-0.132847892370011

> <r_i_glide_ligand_efficiency_sa>
-0.412789289051566

> <r_i_glide_ligand_efficiency_ln>
-0.905534659205673

> <r_i_glide_gscore>
-3.98543677110034

> <r_i_glide_lipo>
-0.033202414267718

> <r_i_glide_hbond>
-0.600037768804501

> <r_i_glide_metal>
0

> <r_i_glide_rewards>
-0.302745940618246

> <r_i_glide_evdw>
-31.123083114624

> <r_i_glide_ecoul>
-10.6766548156738

> <r_i_glide_erotb>
0.680611118548691

> <r_i_glide_esite>
-0.572409387876292

> <r_i_glide_emodel>
-56.7902283436653

> <r_i_glide_energy>
-41.7997379302979

> <r_i_glide_einternal>
13.004430770874

> <i_i_glide_confnum>
158

> <i_i_glide_posenum>
53

> <r_i_glide_eff_state_penalty>
0

> <r_glide_res:A132_vdw>
-1.36576370770672

> <r_glide_res:A132_coul>
-26.5387219989305

> <r_glide_res:A132_hbond>
0

> <r_glide_res:A132_dist>
3.21715357717051

> <r_glide_res:A132_Eint>
-27.9044857066372

> <r_glide_res:A117_vdw>
-4.47948014996126

> <r_glide_res:A117_coul>
25.5090986860086

> <r_glide_res:A117_hbond>
0

> <r_glide_res:A117_dist>
2.19427041674502

> <r_glide_res:A117_Eint>
21.0296185360473

> <r_glide_res:A113_vdw>
-3.73675798625048

> <r_glide_res:A113_coul>
15.1072754630885

> <r_glide_res:A113_hbond>
0

> <r_glide_res:A113_dist>
2.61252499200438

> <r_glide_res:A113_Eint>
11.3705174768381

> <r_glide_res:A82_vdw>
-2.30121691096452

> <r_glide_res:A82_coul>
-42.8732827690096

> <r_glide_res:A82_hbond>
-0.0776157799032802

> <r_glide_res:A82_dist>
2.33264747571289

> <r_glide_res:A82_Eint>
-45.2521154598774

> <r_glide_res:A42_vdw>
2.76610347647168

> <r_glide_res:A42_coul>
-57.3456177848819

> <r_glide_res:A42_hbond>
-0.308241255992602

> <r_glide_res:A42_dist>
1.59544957769553

> <r_glide_res:A42_Eint>
-54.8877555644029

> <r_glide_res:A16_vdw>
-0.992239775180536

> <r_glide_res:A16_coul>
-50.5354455195909

> <r_glide_res:A16_hbond>
-0.2

> <r_glide_res:A16_dist>
1.95580129162304

> <r_glide_res:A16_Eint>
-51.7276852947714

> <s_m_source_file>
ligprep_Nicaido_neutral.maegz

> <i_m_source_file_index>
6

> <i_lp_mmshare_version>
58128

> <i_f3d_flags>
0

> <s_lp_Force_Field>
S-OPLS

> <r_lp_Energy>
53.728996

> <b_lp_Chiralities_Consistent>
1

> <s_lp_Variant>
Cefotaxime-1

> <s_epik_input>
W0NIM11DKD1PKU9bQ0gyXUMoPUMxQyg9TylbT0hdKVtDSDJdU1tDQEBIXShOMTIpW0NASF0oQzI9TylbTkhdQyg9TykvQyg9Ti9PW0NIM10pYzNbY0hdc2MobjMpW05IMl0=

> <s_epik_cmdline>
J2VwaWtfcHl0aG9uJywgJy1waHQnLCAnMC4wJywgJy1waCcsICc3LjQnLCAnLW50JywgJy1tYScsICc1MDAnLCAnLWltYWUnLCAnPGluZmlsZS5tYWU+JywgJy1vbWFlJywgJzxvdXRmaWxlLm1hZT4n

> <r_lp_tautomer_probability>
1

> <r_epik_Ionization_Penalty>
  0.0004

> <r_epik_Ionization_Penalty_Charging>
  0.0000

> <r_epik_Ionization_Penalty_Neutral>
  0.0004

> <r_epik_State_Penalty>
  0.0000

> <r_epik_Charging_Adjusted_Penalty>
5.45682606121274e-06

> <i_epik_Tot_Q>
-1

> <i_epik_Tot_abs_Q>
1

> <s_epik_Chemistry_Notes>
This compound has an ester and may undergo hydrolysis at high or low pH. This compound has an imine and may undergo hydrolysis. This compound contains an acetal/aminal-like group ( X-CH(R)-Y where X, Y are N, S, or O) that may be acid/base labile, releasing an aldehyde.

> <s_m_subgroup_title>
glide-dock_Nicaido_neutral_pv1

> <s_m_subgroupid>
glide-dock_Nicaido_neutral_pv1

> <b_m_subgroup_collapsed>
0

$$$$
Cefmetazole
                    3D
 Schrodinger Suite 2022-2.
 46 48  0  0  1  0            999 V2000
  -31.0424  -19.4882  -22.2442 C   0  0  0  0  0  0
  -30.2391  -20.3345  -23.1061 N   0  0  0  0  0  0
  -29.8423  -21.6094  -22.9878 C   0  0  0  0  0  0
  -30.2558  -22.6661  -21.6361 S   0  0  0  0  0  0
  -29.0513  -22.1528  -20.3527 C   0  0  0  0  0  0
  -27.8178  -21.3937  -20.8365 C   0  0  0  0  0  0
  -26.7593  -22.0090  -21.4256 C   0  0  0  0  0  0
  -25.6406  -21.3040  -21.8924 N   0  0  0  0  0  0
  -25.7029  -19.8811  -22.1696 C   0  0  2  0  0  0
  -24.2345  -19.9719  -22.6288 C   0  0  1  0  0  0
  -23.3256  -19.3829  -21.6964 O   0  0  0  0  0  0
  -21.9430  -19.5986  -21.9492 C   0  0  0  0  0  0
  -24.3756  -21.5082  -22.4200 C   0  0  0  0  0  0
  -23.7178  -22.5039  -22.6397 O   0  0  0  0  0  0
  -24.0034  -19.5492  -24.0177 N   0  0  0  0  0  0
  -24.4988  -20.0863  -25.1473 C   0  0  0  0  0  0
  -23.7907  -19.7230  -26.4501 C   0  0  0  0  0  0
  -21.9702  -19.7482  -26.3859 S   0  0  0  0  0  0
  -21.6082  -21.3399  -25.5766 C   0  0  0  0  0  0
  -22.4770  -22.4287  -26.0517 C   0  0  0  0  0  0
  -23.1664  -23.2854  -26.4135 N   0  0  0  0  0  0
  -25.4299  -20.8925  -25.1807 O   0  0  0  0  0  0
  -26.2238  -19.1027  -20.6181 S   0  0  0  0  0  0
  -27.8555  -19.8873  -20.5522 C   0  0  0  0  0  0
  -26.6573  -23.5494  -21.5366 C   0  0  0  0  0  0
  -25.8707  -24.0922  -20.7327 O   0  5  0  0  0  0
  -27.3467  -24.1191  -22.4133 O   0  0  0  0  0  0
  -29.1629  -21.9881  -24.0667 N   0  0  0  0  0  0
  -29.1214  -20.8511  -24.8493 N   0  0  0  0  0  0
  -29.7653  -19.8685  -24.2883 N   0  0  0  0  0  0
  -32.0821  -19.5155  -22.5690 H   0  0  0  0  0  0
  -30.9849  -19.8348  -21.2122 H   0  0  0  0  0  0
  -30.6809  -18.4594  -22.2861 H   0  0  0  0  0  0
  -28.7448  -23.0427  -19.8041 H   0  0  0  0  0  0
  -29.5689  -21.5493  -19.6127 H   0  0  0  0  0  0
  -26.4105  -19.6637  -22.9729 H   0  0  0  0  0  0
  -21.3575  -19.1389  -21.1531 H   0  0  0  0  0  0
  -21.6941  -20.6595  -21.9730 H   0  0  0  0  0  0
  -21.6299  -19.1448  -22.8898 H   0  0  0  0  0  0
  -23.3285  -18.8083  -24.1379 H   0  0  0  0  0  0
  -24.1303  -18.7501  -26.8030 H   0  0  0  0  0  0
  -24.0772  -20.4541  -27.2049 H   0  0  0  0  0  0
  -21.7474  -21.2453  -24.5003 H   0  0  0  0  0  0
  -20.5683  -21.6130  -25.7543 H   0  0  0  0  0  0
  -28.4999  -19.3879  -21.2705 H   0  0  0  0  0  0
  -28.2707  -19.6962  -19.5614 H   0  0  0  0  0  0
  1  2  1  0  0  0
  1 31  1  0  0  0
  1 32  1  0  0  0
  1 33  1  0  0  0
  2 30  1  0  0  0
  2  3  1  0  0  0
  3  4  1  0  0  0
  3 28  2  0  0  0
  4  5  1  0  0  0
  5  6  1  0  0  0
  5 34  1  0  0  0
  5 35  1  0  0  0
  6 24  1  0  0  0
  6  7  2  0  0  0
  7  8  1  0  0  0
  7 25  1  0  0  0
  8 13  1  0  0  0
  8  9  1  0  0  0
  9 10  1  0  0  0
  9 23  1  0  0  0
  9 36  1  0  0  0
 10 11  1  0  0  0
 10 13  1  0  0  0
 10 15  1  0  0  0
 11 12  1  0  0  0
 12 37  1  0  0  0
 12 38  1  0  0  0
 12 39  1  0  0  0
 13 14  2  0  0  0
 15 16  1  0  0  0
 15 40  1  0  0  0
 16 17  1  0  0  0
 16 22  2  0  0  0
 17 18  1  0  0  0
 17 41  1  0  0  0
 17 42  1  0  0  0
 18 19  1  0  0  0
 19 20  1  0  0  0
 19 43  1  0  0  0
 19 44  1  0  0  0
 20 21  3  0  0  0
 23 24  1  0  0  0
 24 45  1  0  0  0
 24 46  1  0  0  0
 25 26  1  0  0  0
 25 27  2  0  0  0
 28 29  1  0  0  0
 29 30  2  0  0  0
M  CHG  1  26  -1
M  END
> <s_m_entry_id>
27714

> <s_m_entry_name>
data_maestro.3

> <s_m_Source_Path>
C:\Users\olshana1\Git\GramNeg-Accumulation\Gram Negative Permeation - OmpF

> <s_m_Source_File>
data_maestro.csv

> <i_m_Source_File_Index>
3

> <s_m_job_name>
glide-dock_Nicaido_neutral

> <s_i_glide_gridfile>
3POX-grid

> <i_i_glide_lignum>
3

> <i_i_glide_rotatable_bonds>
10

> <r_i_docking_score>
-3.97129463285478

> <r_i_glide_ligand_efficiency>
-0.132376487761826

> <r_i_glide_ligand_efficiency_sa>
-0.411324525331217

> <r_i_glide_ligand_efficiency_ln>
-0.902321411305343

> <r_i_glide_gscore>
-3.97129463285478

> <r_i_glide_lipo>
-0.0535975414753079

> <r_i_glide_hbond>
-0.411199824676103

> <r_i_glide_metal>
0

> <r_i_glide_rewards>
-0.185909169310423

> <r_i_glide_evdw>
-28.6630458831787

> <r_i_glide_ecoul>
-11.9069232940674

> <r_i_glide_erotb>
0.638850535935238

> <r_i_glide_esite>
-0.740247845059139

> <r_i_glide_emodel>
-53.11560614082

> <r_i_glide_energy>
-40.5699691772461

> <r_i_glide_einternal>
18.4045372009277

> <i_i_glide_confnum>
149

> <i_i_glide_posenum>
103

> <r_i_glide_eff_state_penalty>
0

> <r_glide_res:A132_vdw>
1.5585035073797

> <r_glide_res:A132_coul>
-52.3431788570594

> <r_glide_res:A132_hbond>
-0.2

> <r_glide_res:A132_dist>
1.64244539872437

> <r_glide_res:A132_Eint>
-50.9846753496797

> <r_glide_res:A117_vdw>
-4.67576139950406

> <r_glide_res:A117_coul>
12.1826495637119

> <r_glide_res:A117_hbond>
0

> <r_glide_res:A117_dist>
2.46126174474332

> <r_glide_res:A117_Eint>
7.50688816420785

> <r_glide_res:A113_vdw>
-2.87781118852936

> <r_glide_res:A113_coul>
16.8267783898914

> <r_glide_res:A113_hbond>
0

> <r_glide_res:A113_dist>
2.27304334412832

> <r_glide_res:A113_Eint>
13.948967201362

> <r_glide_res:A82_vdw>
0.257917488450665

> <r_glide_res:A82_coul>
-52.6654559636631

> <r_glide_res:A82_hbond>
-0.2

> <r_glide_res:A82_dist>
1.68766759371721

> <r_glide_res:A82_Eint>
-52.6075384752124

> <r_glide_res:A42_vdw>
-2.30239049610268

> <r_glide_res:A42_coul>
-42.0456333944148

> <r_glide_res:A42_hbond>
-0.0111998246761026

> <r_glide_res:A42_dist>
2.47200043830974

> <r_glide_res:A42_Eint>
-44.3592237151935

> <r_glide_res:A16_vdw>
-0.505801937965534

> <r_glide_res:A16_coul>
-23.2709487705864

> <r_glide_res:A16_hbond>
0

> <r_glide_res:A16_dist>
3.48748153913318

> <r_glide_res:A16_Eint>
-23.7767507085519

> <s_m_source_file>
ligprep_Nicaido_neutral.maegz

> <i_m_source_file_index>
3

> <i_lp_mmshare_version>
58128

> <i_f3d_flags>
0

> <s_lp_Force_Field>
S-OPLS

> <r_lp_Energy>
32.161431

> <b_lp_Chiralities_Consistent>
1

> <s_lp_Variant>
Cefmetazole-1

> <s_epik_input>
bjFubmMobjFbQ0gzXSlTW0NIMl1DKD1DMkMoPU8pW09IXSlbQ0gyXVNbQ0BIXShOMjMpW0NAXShDMz1PKShPW0NIM10pW05IXUMoPU8pW0NIMl1TW0NIMl1DI04=

> <s_epik_cmdline>
J2VwaWtfcHl0aG9uJywgJy1waHQnLCAnMC4wJywgJy1waCcsICc3LjQnLCAnLW50JywgJy1tYScsICc1MDAnLCAnLWltYWUnLCAnPGluZmlsZS5tYWU+JywgJy1vbWFlJywgJzxvdXRmaWxlLm1hZT4n

> <r_lp_tautomer_probability>
1

> <r_epik_Ionization_Penalty>
  0.0000

> <r_epik_Ionization_Penalty_Charging>
  0.0000

> <r_epik_Ionization_Penalty_Neutral>
  0.0000

> <r_epik_State_Penalty>
  0.0000

> <r_epik_Charging_Adjusted_Penalty>
8.27330724987756e-06

> <i_epik_Tot_Q>
-1

> <i_epik_Tot_abs_Q>
1

> <s_epik_Chemistry_Notes>
This compound contains an acetal/aminal-like group ( X-CH(R)-Y where X, Y are N, S, or O) that may be acid/base labile, releasing an aldehyde.

> <s_m_subgroup_title>
glide-dock_Nicaido_neutral_pv1

> <s_m_subgroupid>
glide-dock_Nicaido_neutral_pv1

> <b_m_subgroup_collapsed>
0

$$$$
Cefmetazole
                    3D
 Schrodinger Suite 2022-2.
 46 48  0  0  1  0            999 V2000
  -31.6377  -17.9627  -23.2537 C   0  0  0  0  0  0
  -32.7731  -18.7664  -22.8476 N   0  0  0  0  0  0
  -32.9650  -20.0906  -22.8261 C   0  0  0  0  0  0
  -31.7821  -21.2669  -23.3739 S   0  0  0  0  0  0
  -30.7779  -21.4058  -21.8606 C   0  0  0  0  0  0
  -29.3116  -21.0594  -22.1025 C   0  0  0  0  0  0
  -28.4906  -21.8202  -22.8739 C   0  0  0  0  0  0
  -27.1716  -21.4413  -23.1622 N   0  0  0  0  0  0
  -26.6608  -20.0986  -22.9607 C   0  0  2  0  0  0
  -25.2906  -20.6129  -23.4677 C   0  0  1  0  0  0
  -24.2574  -20.7150  -22.4873 O   0  0  0  0  0  0
  -23.5966  -19.4933  -22.1796 C   0  0  0  0  0  0
  -25.9946  -21.9955  -23.6139 C   0  0  0  0  0  0
  -25.7110  -23.1318  -23.9366 O   0  0  0  0  0  0
  -24.8645  -19.9513  -24.7154 N   0  0  0  0  0  0
  -24.2183  -20.5189  -25.7475 C   0  0  0  0  0  0
  -23.2378  -19.6361  -26.5025 C   0  0  0  0  0  0
  -21.5689  -19.8755  -25.8529 S   0  0  0  0  0  0
  -21.0833  -21.4259  -26.6706 C   0  0  0  0  0  0
  -21.3937  -22.6115  -25.8537 C   0  0  0  0  0  0
  -21.6304  -23.5496  -25.2135 N   0  0  0  0  0  0
  -24.3197  -21.7021  -26.0673 O   0  0  0  0  0  0
  -27.0383  -19.6579  -21.2380 S   0  0  0  0  0  0
  -28.8434  -19.7763  -21.4093 C   0  0  0  0  0  0
  -28.9430  -23.1475  -23.5599 C   0  0  0  0  0  0
  -28.9314  -23.1496  -24.8133 O   0  5  0  0  0  0
  -29.1595  -24.1217  -22.8053 O   0  0  0  0  0  0
  -34.1854  -20.3839  -22.4011 N   0  0  0  0  0  0
  -34.7487  -19.1493  -22.1443 N   0  0  0  0  0  0
  -33.9166  -18.1842  -22.4134 N   0  0  0  0  0  0
  -31.1534  -17.5497  -22.3688 H   0  0  0  0  0  0
  -30.9145  -18.5660  -23.8016 H   0  0  0  0  0  0
  -31.9697  -17.1499  -23.9007 H   0  0  0  0  0  0
  -30.8534  -22.4249  -21.4806 H   0  0  0  0  0  0
  -31.1943  -20.7703  -21.0776 H   0  0  0  0  0  0
  -27.1374  -19.3967  -23.6487 H   0  0  0  0  0  0
  -22.9189  -19.6502  -21.3406 H   0  0  0  0  0  0
  -23.0009  -19.1332  -23.0191 H   0  0  0  0  0  0
  -24.3027  -18.7121  -21.8967 H   0  0  0  0  0  0
  -24.7825  -18.9408  -24.6571 H   0  0  0  0  0  0
  -23.5206  -18.5881  -26.4127 H   0  0  0  0  0  0
  -23.2282  -19.8718  -27.5647 H   0  0  0  0  0  0
  -20.0058  -21.4181  -26.8335 H   0  0  0  0  0  0
  -21.5682  -21.5204  -27.6420 H   0  0  0  0  0  0
  -29.2011  -18.9139  -21.9697 H   0  0  0  0  0  0
  -29.2734  -19.7101  -20.4132 H   0  0  0  0  0  0
  1  2  1  0  0  0
  1 31  1  0  0  0
  1 32  1  0  0  0
  1 33  1  0  0  0
  2 30  1  0  0  0
  2  3  1  0  0  0
  3  4  1  0  0  0
  3 28  2  0  0  0
  4  5  1  0  0  0
  5  6  1  0  0  0
  5 34  1  0  0  0
  5 35  1  0  0  0
  6 24  1  0  0  0
  6  7  2  0  0  0
  7  8  1  0  0  0
  7 25  1  0  0  0
  8 13  1  0  0  0
  8  9  1  0  0  0
  9 10  1  0  0  0
  9 23  1  0  0  0
  9 36  1  0  0  0
 10 11  1  0  0  0
 10 13  1  0  0  0
 10 15  1  0  0  0
 11 12  1  0  0  0
 12 37  1  0  0  0
 12 38  1  0  0  0
 12 39  1  0  0  0
 13 14  2  0  0  0
 15 16  1  0  0  0
 15 40  1  0  0  0
 16 17  1  0  0  0
 16 22  2  0  0  0
 17 18  1  0  0  0
 17 41  1  0  0  0
 17 42  1  0  0  0
 18 19  1  0  0  0
 19 20  1  0  0  0
 19 43  1  0  0  0
 19 44  1  0  0  0
 20 21  3  0  0  0
 23 24  1  0  0  0
 24 45  1  0  0  0
 24 46  1  0  0  0
 25 26  1  0  0  0
 25 27  2  0  0  0
 28 29  1  0  0  0
 29 30  2  0  0  0
M  CHG  1  26  -1
M  END
> <s_m_entry_id>
27715

> <s_m_entry_name>
data_maestro.3

> <s_m_Source_Path>
C:\Users\olshana1\Git\GramNeg-Accumulation\Gram Negative Permeation - OmpF

> <s_m_Source_File>
data_maestro.csv

> <i_m_Source_File_Index>
3

> <s_m_job_name>
glide-dock_Nicaido_neutral

> <s_i_glide_gridfile>
3POX-grid

> <i_i_glide_lignum>
3

> <i_i_glide_rotatable_bonds>
10

> <r_i_docking_score>
-3.96704943651528

> <r_i_glide_ligand_efficiency>
-0.132234981217176

> <r_i_glide_ligand_efficiency_sa>
-0.410884831596373

> <r_i_glide_ligand_efficiency_ln>
-0.90135685644189

> <r_i_glide_gscore>
-3.96704943651528

> <r_i_glide_lipo>
-0.111103854655939

> <r_i_glide_hbond>
-0.530292276831471

> <r_i_glide_metal>
0

> <r_i_glide_rewards>
0.0881161765202798

> <r_i_glide_evdw>
-30.4461536407471

> <r_i_glide_ecoul>
-12.8620147705078

> <r_i_glide_erotb>
0.638850535935238

> <r_i_glide_esite>
-0.601010119869859

> <r_i_glide_emodel>
-58.6875461582473

> <r_i_glide_energy>
-43.3081684112549

> <r_i_glide_einternal>
11.1246089935303

> <i_i_glide_confnum>
218

> <i_i_glide_posenum>
172

> <r_i_glide_eff_state_penalty>
0

> <r_glide_res:A132_vdw>
-1.16206979060215

> <r_glide_res:A132_coul>
-36.6421909917119

> <r_glide_res:A132_hbond>
0

> <r_glide_res:A132_dist>
2.94458136190585

> <r_glide_res:A132_Eint>
-37.804260782314

> <r_glide_res:A117_vdw>
-4.46867159626126

> <r_glide_res:A117_coul>
2.78190455224158

> <r_glide_res:A117_hbond>
-0.103822083044486

> <r_glide_res:A117_dist>
2.24044479238879

> <r_glide_res:A117_Eint>
-1.79058912706416

> <r_glide_res:A113_vdw>
-4.06669597215016

> <r_glide_res:A113_coul>
21.5082321372164

> <r_glide_res:A113_hbond>
0

> <r_glide_res:A113_dist>
2.39086310910548

> <r_glide_res:A113_Eint>
17.4415361650662

> <r_glide_res:A82_vdw>
0.39695052646313

> <r_glide_res:A82_coul>
-55.8978021900334

> <r_glide_res:A82_hbond>
-0.223060653976248

> <r_glide_res:A82_dist>
1.74442525331716

> <r_glide_res:A82_Eint>
-55.7239123175466

> <r_glide_res:A42_vdw>
-0.541048377419222

> <r_glide_res:A42_coul>
-52.3780274858934

> <r_glide_res:A42_hbond>
-0.203409539810738

> <r_glide_res:A42_dist>
1.83216751958444

> <r_glide_res:A42_Eint>
-53.1224854031233

> <r_glide_res:A16_vdw>
-0.464208482853915

> <r_glide_res:A16_coul>
-26.2468267104677

> <r_glide_res:A16_hbond>
0

> <r_glide_res:A16_dist>
4.0914066747929

> <r_glide_res:A16_Eint>
-26.7110351933216

> <s_m_source_file>
ligprep_Nicaido_neutral.maegz

> <i_m_source_file_index>
3

> <i_lp_mmshare_version>
58128

> <i_f3d_flags>
0

> <s_lp_Force_Field>
S-OPLS

> <r_lp_Energy>
32.161431

> <b_lp_Chiralities_Consistent>
1

> <s_lp_Variant>
Cefmetazole-1

> <s_epik_input>
bjFubmMobjFbQ0gzXSlTW0NIMl1DKD1DMkMoPU8pW09IXSlbQ0gyXVNbQ0BIXShOMjMpW0NAXShDMz1PKShPW0NIM10pW05IXUMoPU8pW0NIMl1TW0NIMl1DI04=

> <s_epik_cmdline>
J2VwaWtfcHl0aG9uJywgJy1waHQnLCAnMC4wJywgJy1waCcsICc3LjQnLCAnLW50JywgJy1tYScsICc1MDAnLCAnLWltYWUnLCAnPGluZmlsZS5tYWU+JywgJy1vbWFlJywgJzxvdXRmaWxlLm1hZT4n

> <r_lp_tautomer_probability>
1

> <r_epik_Ionization_Penalty>
  0.0000

> <r_epik_Ionization_Penalty_Charging>
  0.0000

> <r_epik_Ionization_Penalty_Neutral>
  0.0000

> <r_epik_State_Penalty>
  0.0000

> <r_epik_Charging_Adjusted_Penalty>
8.27330724987756e-06

> <i_epik_Tot_Q>
-1

> <i_epik_Tot_abs_Q>
1

> <s_epik_Chemistry_Notes>
This compound contains an acetal/aminal-like group ( X-CH(R)-Y where X, Y are N, S, or O) that may be acid/base labile, releasing an aldehyde.

> <s_m_subgroup_title>
glide-dock_Nicaido_neutral_pv1

> <s_m_subgroupid>
glide-dock_Nicaido_neutral_pv1

> <b_m_subgroup_collapsed>
0

$$$$
Ampicillin
                    3D
 Schrodinger Suite 2022-2.
 42 44  0  0  1  0            999 V2000
  -22.0423  -23.0431  -23.0194 C   0  0  0  0  0  0
  -22.7317  -22.7766  -24.3723 C   0  0  0  0  0  0
  -23.9896  -23.6623  -24.6580 C   0  0  2  0  0  0
  -25.0801  -22.9088  -24.0810 N   0  0  0  0  0  0
  -25.1703  -21.4685  -24.2163 C   0  0  2  0  0  0
  -23.3928  -21.0608  -24.2991 S   0  0  0  0  0  0
  -26.0319  -21.4588  -22.9443 C   0  0  2  0  0  0
  -25.9556  -22.9994  -23.0253 C   0  0  0  0  0  0
  -26.4004  -23.9495  -22.4129 O   0  0  0  0  0  0
  -27.3647  -20.8599  -23.1233 N   0  0  0  0  0  0
  -28.3640  -21.1986  -23.9637 C   0  0  0  0  0  0
  -29.7028  -20.4317  -23.8106 C   0  0  2  0  0  0
  -29.8999  -19.6005  -25.0427 C   0  0  0  0  0  0
  -28.9046  -18.7543  -25.5956 C   0  0  0  0  0  0
  -29.1685  -17.9490  -26.7204 C   0  0  0  0  0  0
  -30.4436  -17.9416  -27.3062 C   0  0  0  0  0  0
  -31.4558  -18.7498  -26.7638 C   0  0  0  0  0  0
  -31.1777  -19.5715  -25.6542 C   0  0  0  0  0  0
  -29.7987  -19.6083  -22.6026 N   0  0  0  0  0  0
  -28.2604  -22.0898  -24.8130 O   0  0  0  0  0  0
  -23.9688  -25.1673  -24.3164 C   0  0  0  0  0  0
  -24.3689  -25.9497  -25.2059 O   0  5  0  0  0  0
  -23.5451  -25.5499  -23.2036 O   0  0  0  0  0  0
  -21.7027  -22.8918  -25.5095 C   0  0  0  0  0  0
  -21.5257  -24.0015  -23.0054 H   0  0  0  0  0  0
  -21.2987  -22.2768  -22.8019 H   0  0  0  0  0  0
  -22.7618  -23.0380  -22.2006 H   0  0  0  0  0  0
  -24.1697  -23.6127  -25.7304 H   0  0  0  0  0  0
  -25.6874  -21.1530  -25.1244 H   0  0  0  0  0  0
  -25.4871  -21.0380  -22.0977 H   0  0  0  0  0  0
  -27.5570  -20.0685  -22.5247 H   0  0  0  0  0  0
  -30.4771  -21.1979  -23.7404 H   0  0  0  0  0  0
  -27.9243  -18.6953  -25.1438 H   0  0  0  0  0  0
  -28.3944  -17.3041  -27.1140 H   0  0  0  0  0  0
  -30.6442  -17.2952  -28.1477 H   0  0  0  0  0  0
  -32.4502  -18.7307  -27.1871 H   0  0  0  0  0  0
  -31.9779  -20.1679  -25.2397 H   0  0  0  0  0  0
  -29.2318  -19.9258  -21.8290 H   0  0  0  0  0  0
  -29.5974  -18.6300  -22.7668 H   0  0  0  0  0  0
  -21.3284  -23.9101  -25.6064 H   0  0  0  0  0  0
  -22.1321  -22.6093  -26.4707 H   0  0  0  0  0  0
  -20.8472  -22.2390  -25.3371 H   0  0  0  0  0  0
  1  2  1  0  0  0
  1 25  1  0  0  0
  1 26  1  0  0  0
  1 27  1  0  0  0
  2  6  1  0  0  0
  2  3  1  0  0  0
  2 24  1  0  0  0
  3  4  1  0  0  0
  3 21  1  0  0  0
  3 28  1  0  0  0
  4  8  1  0  0  0
  4  5  1  0  0  0
  5  6  1  0  0  0
  5  7  1  0  0  0
  5 29  1  0  0  0
  7  8  1  0  0  0
  7 10  1  0  0  0
  7 30  1  0  0  0
  8  9  2  0  0  0
 10 11  1  0  0  0
 10 31  1  0  0  0
 11 12  1  0  0  0
 11 20  2  0  0  0
 12 13  1  0  0  0
 12 19  1  0  0  0
 12 32  1  0  0  0
 13 18  1  0  0  0
 13 14  2  0  0  0
 14 15  1  0  0  0
 14 33  1  0  0  0
 15 16  2  0  0  0
 15 34  1  0  0  0
 16 17  1  0  0  0
 16 35  1  0  0  0
 17 18  2  0  0  0
 17 36  1  0  0  0
 18 37  1  0  0  0
 19 38  1  0  0  0
 19 39  1  0  0  0
 21 22  1  0  0  0
 21 23  2  0  0  0
 24 40  1  0  0  0
 24 41  1  0  0  0
 24 42  1  0  0  0
M  CHG  1  22  -1
M  END
> <s_m_entry_id>
27716

> <s_m_entry_name>
data_maestro.18

> <s_m_Source_Path>
C:\Users\olshana1\Git\GramNeg-Accumulation\Gram Negative Permeation - OmpF

> <s_m_Source_File>
data_maestro.csv

> <i_m_Source_File_Index>
18

> <s_m_job_name>
glide-dock_Nicaido_neutral

> <s_i_glide_gridfile>
3POX-grid

> <i_i_glide_lignum>
23

> <i_i_glide_rotatable_bonds>
5

> <r_i_docking_score>
-3.96045534233304

> <r_i_glide_ligand_efficiency>
-0.16501897259721

> <r_i_glide_ligand_efficiency_sa>
-0.475997084137544

> <r_i_glide_ligand_efficiency_ln>
-0.947918696874046

> <r_i_glide_gscore>
-4.06635534233304

> <r_i_glide_lipo>
0

> <r_i_glide_hbond>
-0.58567414940907

> <r_i_glide_metal>
0

> <r_i_glide_rewards>
-1.03352769165694

> <r_i_glide_evdw>
-24.0457897186279

> <r_i_glide_ecoul>
-8.89648342132568

> <r_i_glide_erotb>
0.470487855572594

> <r_i_glide_esite>
-0.380879357709379

> <r_i_glide_emodel>
-48.1086984496685

> <r_i_glide_energy>
-32.9422731399536

> <r_i_glide_einternal>
7.52601480484009

> <i_i_glide_confnum>
7

> <i_i_glide_posenum>
19

> <r_i_glide_eff_state_penalty>
0.1059

> <r_glide_res:A132_vdw>
-1.56200626827317

> <r_glide_res:A132_coul>
-38.7590161880331

> <r_glide_res:A132_hbond>
-0.028528017651831

> <r_glide_res:A132_dist>
2.36717645445474

> <r_glide_res:A132_Eint>
-40.3495504739581

> <r_glide_res:A117_vdw>
-3.63034737999361

> <r_glide_res:A117_coul>
13.5852561328153

> <r_glide_res:A117_hbond>
0

> <r_glide_res:A117_dist>
2.23825286338065

> <r_glide_res:A117_Eint>
9.9549087528217

> <r_glide_res:A113_vdw>
-0.645175753564628

> <r_glide_res:A113_coul>
15.4303122788706

> <r_glide_res:A113_hbond>
0

> <r_glide_res:A113_dist>
3.5782197483277

> <r_glide_res:A113_Eint>
14.785136525306

> <r_glide_res:A82_vdw>
-0.977364640068977

> <r_glide_res:A82_coul>
-50.2128316675237

> <r_glide_res:A82_hbond>
-0.36

> <r_glide_res:A82_dist>
1.90438717463736

> <r_glide_res:A82_Eint>
-51.5501963075926

> <r_glide_res:A42_vdw>
-2.94624191092624

> <r_glide_res:A42_coul>
-37.9379367999523

> <r_glide_res:A42_hbond>
-0.138825484974561

> <r_glide_res:A42_dist>
1.9007498572325

> <r_glide_res:A42_Eint>
-41.0230041958531

> <r_glide_res:A16_vdw>
-1.04874704474138

> <r_glide_res:A16_coul>
-21.8132828677223

> <r_glide_res:A16_hbond>
0

> <r_glide_res:A16_dist>
2.95910291043322

> <r_glide_res:A16_Eint>
-22.8620299124637

> <s_m_source_file>
ligprep_Nicaido_neutral.maegz

> <i_m_source_file_index>
18

> <i_lp_mmshare_version>
58128

> <i_f3d_flags>
0

> <s_lp_Force_Field>
S-OPLS

> <r_lp_Energy>
33.736216

> <b_lp_Chiralities_Consistent>
1

> <s_lp_Variant>
Ampicillin-1

> <s_epik_input>
W09IXUMoPU8pW0NAQEhdMUMoW0NIM10pKFtDSDNdKVNbQ0BASF0oTjEyKVtDQEhdKEMyPU8pW05IXUMoPU8pW0NAQEhdKFtOSDJdKWMzW2NIXVtjSF1bY0hdW2NIXVtjSF0z

> <s_epik_cmdline>
J2VwaWtfcHl0aG9uJywgJy1waHQnLCAnMC4wJywgJy1waCcsICc3LjQnLCAnLW50JywgJy1tYScsICc1MDAnLCAnLWltYWUnLCAnPGluZmlsZS5tYWU+JywgJy1vbWFlJywgJzxvdXRmaWxlLm1hZT4n

> <r_epik_Ionization_Penalty>
  0.1060

> <r_epik_Ionization_Penalty_Charging>
  0.0000

> <r_epik_Ionization_Penalty_Neutral>
  0.1059

> <r_epik_State_Penalty>
  0.1059

> <r_epik_Charging_Adjusted_Penalty>
0.105949346496876

> <i_epik_Tot_Q>
-1

> <i_epik_Tot_abs_Q>
1

> <s_epik_Chemistry_Notes>
This compound contains an acetal/aminal-like group ( X-CH(R)-Y where X, Y are N, S, or O) that may be acid/base labile, releasing an aldehyde.

> <s_m_subgroup_title>
glide-dock_Nicaido_neutral_pv1

> <s_m_subgroupid>
glide-dock_Nicaido_neutral_pv1

> <b_m_subgroup_collapsed>
0

$$$$
Nalidixic acid
                    3D
 Schrodinger Suite 2022-2.
 28 29  0  0  1  0            999 V2000
  -35.8878  -21.3876  -28.1552 C   0  0  0  0  0  0
  -35.9925  -22.8523  -27.7038 C   0  0  0  0  0  0
  -34.7267  -23.5730  -27.8540 N   0  0  0  0  0  0
  -33.8404  -23.7011  -26.7933 C   0  0  0  0  0  0
  -32.6541  -24.3382  -26.8463 C   0  0  0  0  0  0
  -32.2469  -24.9649  -28.1293 C   0  0  0  0  0  0
  -33.1842  -24.8067  -29.2778 C   0  0  0  0  0  0
  -34.4147  -24.1198  -29.1180 C   0  0  0  0  0  0
  -35.2848  -23.9563  -30.1422 N   0  0  0  0  0  0
  -34.9733  -24.4597  -31.3525 C   0  0  0  0  0  0
  -33.7751  -25.1488  -31.6056 C   0  0  0  0  0  0
  -32.8683  -25.3335  -30.5466 C   0  0  0  0  0  0
  -36.0005  -24.2621  -32.4473 C   0  0  0  0  0  0
  -31.1683  -25.5508  -28.2585 O   0  0  0  0  0  0
  -31.7229  -24.3610  -25.6041 C   0  0  0  0  0  0
  -31.9792  -25.2177  -24.7301 O   0  5  0  0  0  0
  -30.7683  -23.5486  -25.6144 O   0  0  0  0  0  0
  -36.8373  -20.8739  -28.0126 H   0  0  0  0  0  0
  -35.1291  -20.8543  -27.5795 H   0  0  0  0  0  0
  -35.6252  -21.3148  -29.2097 H   0  0  0  0  0  0
  -36.7924  -23.3592  -28.2474 H   0  0  0  0  0  0
  -36.2965  -22.8841  -26.6548 H   0  0  0  0  0  0
  -34.1734  -23.2208  -25.8825 H   0  0  0  0  0  0
  -33.5695  -25.5478  -32.5876 H   0  0  0  0  0  0
  -31.9459  -25.8684  -30.7189 H   0  0  0  0  0  0
  -35.5360  -24.3494  -33.4300 H   0  0  0  0  0  0
  -36.7767  -25.0219  -32.3774 H   0  0  0  0  0  0
  -36.4672  -23.2808  -32.3720 H   0  0  0  0  0  0
  1  2  1  0  0  0
  1 18  1  0  0  0
  1 19  1  0  0  0
  1 20  1  0  0  0
  2  3  1  0  0  0
  2 21  1  0  0  0
  2 22  1  0  0  0
  3  8  1  0  0  0
  3  4  1  0  0  0
  4  5  2  0  0  0
  4 23  1  0  0  0
  5  6  1  0  0  0
  5 15  1  0  0  0
  6  7  1  0  0  0
  6 14  2  0  0  0
  7 12  2  0  0  0
  7  8  1  0  0  0
  8  9  2  0  0  0
  9 10  1  0  0  0
 10 11  2  0  0  0
 10 13  1  0  0  0
 11 12  1  0  0  0
 11 24  1  0  0  0
 12 25  1  0  0  0
 13 26  1  0  0  0
 13 27  1  0  0  0
 13 28  1  0  0  0
 15 16  1  0  0  0
 15 17  2  0  0  0
M  CHG  1  16  -1
M  END
> <s_m_entry_id>
27717

> <s_m_entry_name>
data_maestro.31

> <s_m_Source_Path>
C:\Users\olshana1\Git\GramNeg-Accumulation\Gram Negative Permeation - OmpF

> <s_m_Source_File>
data_maestro.csv

> <i_m_Source_File_Index>
31

> <s_m_job_name>
glide-dock_Nicaido_neutral

> <s_i_glide_gridfile>
3POX-grid

> <i_i_glide_lignum>
40

> <i_i_glide_rotatable_bonds>
2

> <r_i_docking_score>
-3.95258425286472

> <r_i_glide_ligand_efficiency>
-0.232504956050866

> <r_i_glide_ligand_efficiency_sa>
-0.597835712665795

> <r_i_glide_ligand_efficiency_ln>
-1.0311412118487

> <r_i_glide_gscore>
-3.95258425286472

> <r_i_glide_lipo>
-0.480844911451292

> <r_i_glide_hbond>
-0.295579875431248

> <r_i_glide_metal>
0

> <r_i_glide_rewards>
-1.83254086363636

> <r_i_glide_evdw>
-18.0111675262451

> <r_i_glide_ecoul>
-2.48117256164551

> <r_i_glide_erotb>
0

> <r_i_glide_esite>
-0.0708843417867374

> <r_i_glide_emodel>
-30.3090587941681

> <r_i_glide_energy>
-20.4923400878906

> <r_i_glide_einternal>
4.40147256851196

> <i_i_glide_confnum>
1

> <i_i_glide_posenum>
228

> <r_i_glide_eff_state_penalty>
0

> <r_glide_res:A132_vdw>
-0.160255469679292

> <r_glide_res:A132_coul>
-24.4582115965486

> <r_glide_res:A132_hbond>
0

> <r_glide_res:A132_dist>
5.29732932732541

> <r_glide_res:A132_Eint>
-24.6184670662279

> <r_glide_res:A117_vdw>
-0.0511448522922206

> <r_glide_res:A117_coul>
18.6803786115409

> <r_glide_res:A117_hbond>
0

> <r_glide_res:A117_dist>
8.12121538662733

> <r_glide_res:A117_Eint>
18.6292337592487

> <r_glide_res:A113_vdw>
-0.0740904084074644

> <r_glide_res:A113_coul>
21.9576461048009

> <r_glide_res:A113_hbond>
0

> <r_glide_res:A113_dist>
7.3643473498173

> <r_glide_res:A113_Eint>
21.8835556963934

> <r_glide_res:A82_vdw>
-0.656784989319481

> <r_glide_res:A82_coul>
-40.6330887316402

> <r_glide_res:A82_hbond>
0

> <r_glide_res:A82_dist>
2.50474646564896

> <r_glide_res:A82_Eint>
-41.2898737209597

> <r_glide_res:A42_vdw>
-1.34432930440241

> <r_glide_res:A42_coul>
-45.2520264957293

> <r_glide_res:A42_hbond>
-0.295579875431248

> <r_glide_res:A42_dist>
1.99684404659236

> <r_glide_res:A42_Eint>
-46.8919356755629

> <r_glide_res:A16_vdw>
-4.68331794477367

> <r_glide_res:A16_coul>
-34.9039978999184

> <r_glide_res:A16_hbond>
0

> <r_glide_res:A16_dist>
2.67215798180376

> <r_glide_res:A16_Eint>
-39.5873158446921

> <s_m_source_file>
ligprep_Nicaido_neutral.maegz

> <i_m_source_file_index>
31

> <i_lp_mmshare_version>
58128

> <i_f3d_flags>
0

> <s_lp_Force_Field>
S-OPLS

> <r_lp_Energy>
25.048869

> <b_lp_Chiralities_Consistent>
1

> <s_lp_Variant>
Nalidixic acid-1

> <s_epik_input>
Tz1jMWMoQyg9TylbT0hdKVtjSF1uKFtDSDJdW0NIM10pYyhjMTIpbmMoW0NIM10pW2NIXVtjSF0y

> <s_epik_cmdline>
J2VwaWtfcHl0aG9uJywgJy1waHQnLCAnMC4wJywgJy1waCcsICc3LjQnLCAnLW50JywgJy1tYScsICc1MDAnLCAnLWltYWUnLCAnPGluZmlsZS5tYWU+JywgJy1vbWFlJywgJzxvdXRmaWxlLm1hZT4n

> <r_lp_tautomer_probability>
1

> <r_epik_Ionization_Penalty>
  0.0215

> <r_epik_Ionization_Penalty_Charging>
  0.0215

> <r_epik_Ionization_Penalty_Neutral>
  0.0000

> <r_epik_State_Penalty>
  0.0000

> <r_epik_Charging_Adjusted_Penalty>
0.0214516940307923

> <i_epik_Tot_Q>
-1

> <i_epik_Tot_abs_Q>
1

> <s_m_subgroup_title>
glide-dock_Nicaido_neutral_pv1

> <s_m_subgroupid>
glide-dock_Nicaido_neutral_pv1

> <b_m_subgroup_collapsed>
0

$$$$
Cefotaxime
                    3D
 Schrodinger Suite 2022-2.
 46 48  0  0  1  0            999 V2000
  -29.3452  -17.9488  -26.3503 C   0  0  0  0  0  0
  -29.1905  -19.2358  -25.5542 C   0  0  0  0  0  0
  -28.6423  -19.0199  -24.3461 O   0  0  0  0  0  0
  -28.4694  -20.0723  -23.4024 C   0  0  0  0  0  0
  -27.0227  -20.5714  -23.3238 C   0  0  0  0  0  0
  -26.6774  -21.8835  -23.4328 C   0  0  0  0  0  0
  -25.3486  -22.3221  -23.2788 N   0  0  0  0  0  0
  -24.3870  -21.5995  -22.4683 C   0  0  1  0  0  0
  -23.3584  -22.6895  -22.8385 C   0  0  2  0  0  0
  -24.5568  -23.4427  -23.4561 C   0  0  0  0  0  0
  -24.7689  -24.5468  -23.9053 O   0  0  0  0  0  0
  -22.7875  -23.3801  -21.6767 N   0  0  0  0  0  0
  -22.1503  -24.5644  -21.7404 C   0  0  0  0  0  0
  -21.6823  -25.1416  -20.3878 C   0  0  0  0  0  0
  -22.1761  -24.4415  -19.1673 C   0  0  0  0  0  0
  -21.3115  -24.1429  -18.1355 C   0  0  0  0  0  0
  -22.1110  -23.3414  -16.8119 S   0  0  0  0  0  0
  -23.6126  -23.4477  -17.7114 C   0  0  0  0  0  0
  -24.7882  -22.9303  -17.2139 N   0  0  0  0  0  0
  -23.4981  -24.0616  -18.8898 N   0  0  0  0  0  0
  -20.9101  -26.1498  -20.2136 N   0  0  0  0  0  0
  -20.4427  -26.7578  -21.3876 O   0  0  0  0  0  0
  -19.7159  -27.9172  -21.0208 C   0  0  0  0  0  0
  -21.9681  -25.1471  -22.8126 O   0  0  0  0  0  0
  -24.2641  -19.9228  -23.1472 S   0  0  0  0  0  0
  -26.0155  -19.4516  -23.0475 C   0  0  0  0  0  0
  -27.7361  -23.0124  -23.6519 C   0  0  0  0  0  0
  -27.7370  -23.9464  -22.8129 O   0  5  0  0  0  0
  -28.3705  -22.9721  -24.7316 O   0  0  0  0  0  0
  -29.5687  -20.3169  -26.0135 O   0  0  0  0  0  0
  -28.3693  -17.5493  -26.6218 H   0  0  0  0  0  0
  -29.9128  -18.1218  -27.2641 H   0  0  0  0  0  0
  -29.8648  -17.1948  -25.7597 H   0  0  0  0  0  0
  -29.1849  -20.8741  -23.5857 H   0  0  0  0  0  0
  -28.7295  -19.6709  -22.4218 H   0  0  0  0  0  0
  -24.6790  -21.5911  -21.4143 H   0  0  0  0  0  0
  -22.6146  -22.3409  -23.5571 H   0  0  0  0  0  0
  -22.9434  -22.9622  -20.7688 H   0  0  0  0  0  0
  -20.2494  -24.3320  -18.0798 H   0  0  0  0  0  0
  -25.6627  -23.0053  -17.7133 H   0  0  0  0  0  0
  -24.8362  -22.4923  -16.3036 H   0  0  0  0  0  0
  -19.3603  -28.4234  -21.9170 H   0  0  0  0  0  0
  -18.8442  -27.6609  -20.4144 H   0  0  0  0  0  0
  -20.3390  -28.6213  -20.4625 H   0  0  0  0  0  0
  -26.1687  -18.6293  -23.7452 H   0  0  0  0  0  0
  -26.2067  -19.0592  -22.0488 H   0  0  0  0  0  0
  1  2  1  0  0  0
  1 31  1  0  0  0
  1 32  1  0  0  0
  1 33  1  0  0  0
  2  3  1  0  0  0
  2 30  2  0  0  0
  3  4  1  0  0  0
  4  5  1  0  0  0
  4 34  1  0  0  0
  4 35  1  0  0  0
  5 26  1  0  0  0
  5  6  2  0  0  0
  6  7  1  0  0  0
  6 27  1  0  0  0
  7 10  1  0  0  0
  7  8  1  0  0  0
  8  9  1  0  0  0
  8 25  1  0  0  0
  8 36  1  0  0  0
  9 10  1  0  0  0
  9 12  1  0  0  0
  9 37  1  0  0  0
 10 11  2  0  0  0
 12 13  1  0  0  0
 12 38  1  0  0  0
 13 14  1  0  0  0
 13 24  2  0  0  0
 14 15  1  0  0  0
 14 21  2  3  0  0
 15 20  1  0  0  0
 15 16  2  0  0  0
 16 17  1  0  0  0
 16 39  1  0  0  0
 17 18  1  0  0  0
 18 19  1  0  0  0
 18 20  2  0  0  0
 19 40  1  0  0  0
 19 41  1  0  0  0
 21 22  1  0  0  0
 22 23  1  0  0  0
 23 42  1  0  0  0
 23 43  1  0  0  0
 23 44  1  0  0  0
 25 26  1  0  0  0
 26 45  1  0  0  0
 26 46  1  0  0  0
 27 28  1  0  0  0
 27 29  2  0  0  0
M  CHG  1  28  -1
M  END
> <s_m_entry_id>
27718

> <s_m_entry_name>
data_maestro.6

> <s_m_Source_Path>
C:\Users\olshana1\Git\GramNeg-Accumulation\Gram Negative Permeation - OmpF

> <s_m_Source_File>
data_maestro.csv

> <i_m_Source_File_Index>
6

> <s_m_job_name>
glide-dock_Nicaido_neutral

> <s_i_glide_gridfile>
3POX-grid

> <i_i_glide_lignum>
8

> <i_i_glide_rotatable_bonds>
9

> <r_i_docking_score>
-3.95052958926761

> <r_i_glide_ligand_efficiency>
-0.131684319642254

> <r_i_glide_ligand_efficiency_sa>
-0.409173798052935

> <r_i_glide_ligand_efficiency_ln>
-0.897603367149068

> <r_i_glide_gscore>
-3.95052958926761

> <r_i_glide_lipo>
0

> <r_i_glide_hbond>
-0.715206838063024

> <r_i_glide_metal>
0

> <r_i_glide_rewards>
-0.310258466291058

> <r_i_glide_evdw>
-25.3761196136475

> <r_i_glide_ecoul>
-12.5337238311768

> <r_i_glide_erotb>
0.680611118548691

> <r_i_glide_esite>
-0.456810848103335

> <r_i_glide_emodel>
-56.4937565400605

> <r_i_glide_energy>
-37.9098434448242

> <r_i_glide_einternal>
3.94635605812073

> <i_i_glide_confnum>
102

> <i_i_glide_posenum>
198

> <r_i_glide_eff_state_penalty>
0

> <r_glide_res:A132_vdw>
-2.49091047156282

> <r_glide_res:A132_coul>
-36.2587280087172

> <r_glide_res:A132_hbond>
0

> <r_glide_res:A132_dist>
2.94461476098672

> <r_glide_res:A132_Eint>
-38.7496384802801

> <r_glide_res:A117_vdw>
-4.47408034935799

> <r_glide_res:A117_coul>
21.3446998000198

> <r_glide_res:A117_hbond>
0

> <r_glide_res:A117_dist>
2.24770261572128

> <r_glide_res:A117_Eint>
16.8706194506618

> <r_glide_res:A113_vdw>
-0.434473066681828

> <r_glide_res:A113_coul>
20.643724142675

> <r_glide_res:A113_hbond>
0

> <r_glide_res:A113_dist>
4.34418014839165

> <r_glide_res:A113_Eint>
20.2092510759932

> <r_glide_res:A82_vdw>
3.22011693832114

> <r_glide_res:A82_coul>
-56.0222071384483

> <r_glide_res:A82_hbond>
-0.207236899491747

> <r_glide_res:A82_dist>
1.64971217176267

> <r_glide_res:A82_Eint>
-53.0093270996189

> <r_glide_res:A42_vdw>
-1.24631805873583

> <r_glide_res:A42_coul>
-50.4889245010799

> <r_glide_res:A42_hbond>
-0.300575676396553

> <r_glide_res:A42_dist>
2.07211146562188

> <r_glide_res:A42_Eint>
-52.0358182362123

> <r_glide_res:A16_vdw>
-0.88446480848071

> <r_glide_res:A16_coul>
-31.7959318634248

> <r_glide_res:A16_hbond>
-0.0473942621747233

> <r_glide_res:A16_dist>
2.38151434456319

> <r_glide_res:A16_Eint>
-32.7277909340803

> <s_m_source_file>
ligprep_Nicaido_neutral.maegz

> <i_m_source_file_index>
6

> <i_lp_mmshare_version>
58128

> <i_f3d_flags>
0

> <s_lp_Force_Field>
S-OPLS

> <r_lp_Energy>
51.702138

> <b_lp_Chiralities_Consistent>
1

> <s_lp_Variant>
Cefotaxime-2

> <s_epik_input>
W0NIM11DKD1PKU9bQ0gyXUMoPUMxQyg9TylbT0hdKVtDSDJdU1tDQEBIXShOMTIpW0NASF0oQzI9TylbTkhdQyg9TykvQyg9Ti9PW0NIM10pYzNbY0hdc2MobjMpW05IMl0=

> <s_epik_cmdline>
J2VwaWtfcHl0aG9uJywgJy1waHQnLCAnMC4wJywgJy1waCcsICc3LjQnLCAnLW50JywgJy1tYScsICc1MDAnLCAnLWltYWUnLCAnPGluZmlsZS5tYWU+JywgJy1vbWFlJywgJzxvdXRmaWxlLm1hZT4n

> <r_lp_tautomer_probability>
1

> <r_epik_Ionization_Penalty>
  0.0004

> <r_epik_Ionization_Penalty_Charging>
  0.0000

> <r_epik_Ionization_Penalty_Neutral>
  0.0004

> <r_epik_State_Penalty>
  0.0000

> <r_epik_Charging_Adjusted_Penalty>
5.45682606121274e-06

> <i_epik_Tot_Q>
-1

> <i_epik_Tot_abs_Q>
1

> <s_epik_Chemistry_Notes>
This compound has an ester and may undergo hydrolysis at high or low pH. This compound has an imine and may undergo hydrolysis. This compound contains an acetal/aminal-like group ( X-CH(R)-Y where X, Y are N, S, or O) that may be acid/base labile, releasing an aldehyde.

> <s_m_subgroup_title>
glide-dock_Nicaido_neutral_pv1

> <s_m_subgroupid>
glide-dock_Nicaido_neutral_pv1

> <b_m_subgroup_collapsed>
0

$$$$
Ceftizoxime
                    3D
 Schrodinger Suite 2022-2.
 37 39  0  0  1  0            999 V2000
  -24.3314  -22.7281  -16.0001 C   0  0  0  0  0  0
  -24.3713  -22.2447  -17.3254 O   0  0  0  0  0  0
  -25.5523  -22.7213  -17.9128 N   0  0  0  0  0  0
  -26.0958  -21.8811  -18.7009 C   0  0  0  0  0  0
  -25.5799  -20.4899  -18.9258 C   0  0  0  0  0  0
  -25.3859  -19.9720  -20.1899 C   0  0  0  0  0  0
  -24.7533  -18.3496  -20.1508 S   0  0  0  0  0  0
  -24.7280  -18.4448  -18.3995 C   0  0  0  0  0  0
  -24.2684  -17.4059  -17.6134 N   0  0  0  0  0  0
  -25.1689  -19.6041  -17.9189 N   0  0  0  0  0  0
  -27.3399  -22.2993  -19.4739 C   0  0  0  0  0  0
  -28.0779  -21.2758  -19.9420 N   0  0  0  0  0  0
  -29.2242  -21.3504  -20.8516 C   0  0  1  0  0  0
  -29.2648  -20.1064  -21.7641 C   0  0  1  0  0  0
  -29.3728  -21.0234  -22.8864 N   0  0  0  0  0  0
  -28.9939  -22.1476  -22.1655 C   0  0  0  0  0  0
  -28.6436  -23.2672  -22.4852 O   0  0  0  0  0  0
  -29.5997  -20.5762  -24.2033 C   0  0  0  0  0  0
  -29.2696  -21.5496  -25.3798 C   0  0  0  0  0  0
  -28.3226  -22.3496  -25.2134 O   0  5  0  0  0  0
  -29.9689  -21.4545  -26.4134 O   0  0  0  0  0  0
  -30.0430  -19.3267  -24.4710 C   0  0  0  0  0  0
  -30.3856  -18.2613  -23.4433 C   0  0  0  0  0  0
  -30.6783  -18.9547  -21.7984 S   0  0  0  0  0  0
  -27.6045  -23.4909  -19.6697 O   0  0  0  0  0  0
  -23.4085  -22.4160  -15.5115 H   0  0  0  0  0  0
  -25.1690  -22.3496  -15.4109 H   0  0  0  0  0  0
  -24.3689  -23.8133  -16.0134 H   0  0  0  0  0  0
  -25.5849  -20.4351  -21.1449 H   0  0  0  0  0  0
  -24.4361  -17.4237  -16.6163 H   0  0  0  0  0  0
  -24.1067  -16.4884  -18.0034 H   0  0  0  0  0  0
  -27.8245  -20.3420  -19.6475 H   0  0  0  0  0  0
  -30.1784  -21.5496  -20.3658 H   0  0  0  0  0  0
  -28.3199  -19.5583  -21.8095 H   0  0  0  0  0  0
  -30.1547  -19.0156  -25.4998 H   0  0  0  0  0  0
  -29.5689  -17.5432  -23.3924 H   0  0  0  0  0  0
  -31.2767  -17.7173  -23.7567 H   0  0  0  0  0  0
  1  2  1  0  0  0
  1 26  1  0  0  0
  1 27  1  0  0  0
  1 28  1  0  0  0
  2  3  1  0  0  0
  3  4  2  3  0  0
  4  5  1  0  0  0
  4 11  1  0  0  0
  5 10  1  0  0  0
  5  6  2  0  0  0
  6  7  1  0  0  0
  6 29  1  0  0  0
  7  8  1  0  0  0
  8  9  1  0  0  0
  8 10  2  0  0  0
  9 30  1  0  0  0
  9 31  1  0  0  0
 11 12  1  0  0  0
 11 25  2  0  0  0
 12 13  1  0  0  0
 12 32  1  0  0  0
 13 16  1  0  0  0
 13 14  1  0  0  0
 13 33  1  0  0  0
 14 24  1  0  0  0
 14 15  1  0  0  0
 14 34  1  0  0  0
 15 16  1  0  0  0
 15 18  1  0  0  0
 16 17  2  0  0  0
 18 19  1  0  0  0
 18 22  2  0  0  0
 19 20  1  0  0  0
 19 21  2  0  0  0
 22 23  1  0  0  0
 22 35  1  0  0  0
 23 24  1  0  0  0
 23 36  1  0  0  0
 23 37  1  0  0  0
M  CHG  1  20  -1
M  END
> <s_m_entry_id>
27719

> <s_m_entry_name>
data_maestro.5

> <s_m_Source_Path>
C:\Users\olshana1\Git\GramNeg-Accumulation\Gram Negative Permeation - OmpF

> <s_m_Source_File>
data_maestro.csv

> <i_m_Source_File_Index>
5

> <s_m_job_name>
glide-dock_Nicaido_neutral

> <s_i_glide_gridfile>
3POX-grid

> <i_i_glide_lignum>
5

> <i_i_glide_rotatable_bonds>
6

> <r_i_docking_score>
-3.93630700412664

> <r_i_glide_ligand_efficiency>
-0.157452280165066

> <r_i_glide_ligand_efficiency_sa>
-0.460393259630731

> <r_i_glide_ligand_efficiency_ln>
-0.933022721580011

> <r_i_glide_gscore>
-3.93630700412664

> <r_i_glide_lipo>
-0.0161963906898472

> <r_i_glide_hbond>
-0.586667374766906

> <r_i_glide_metal>
0

> <r_i_glide_rewards>
-0.412025022350758

> <r_i_glide_evdw>
-32.1588935852051

> <r_i_glide_ecoul>
-9.60976028442383

> <r_i_glide_erotb>
0.664075194683877

> <r_i_glide_esite>
-0.53608468907918

> <r_i_glide_emodel>
-57.3726993796459

> <r_i_glide_energy>
-41.7686538696289

> <r_i_glide_einternal>
4.53602886199951

> <i_i_glide_confnum>
32

> <i_i_glide_posenum>
283

> <r_i_glide_eff_state_penalty>
0

> <r_glide_res:A132_vdw>
-1.54658515957706

> <r_glide_res:A132_coul>
-31.3002790676059

> <r_glide_res:A132_hbond>
-0.0242466581941648

> <r_glide_res:A132_dist>
2.43938335451459

> <r_glide_res:A132_Eint>
-32.8711108853771

> <r_glide_res:A117_vdw>
-3.81142640049604

> <r_glide_res:A117_coul>
21.508046896357

> <r_glide_res:A117_hbond>
0

> <r_glide_res:A117_dist>
2.3760633704211

> <r_glide_res:A117_Eint>
17.696620495861

> <r_glide_res:A113_vdw>
-3.50220241886784

> <r_glide_res:A113_coul>
17.7984918079165

> <r_glide_res:A113_hbond>
0

> <r_glide_res:A113_dist>
2.49294045930617

> <r_glide_res:A113_Eint>
14.2962893890486

> <r_glide_res:A82_vdw>
-1.50392747589624

> <r_glide_res:A82_coul>
-37.743173373697

> <r_glide_res:A82_hbond>
0

> <r_glide_res:A82_dist>
2.72679371426383

> <r_glide_res:A82_Eint>
-39.2471008495932

> <r_glide_res:A42_vdw>
0.719053488104873

> <r_glide_res:A42_coul>
-51.3231176631755

> <r_glide_res:A42_hbond>
-0.353899908204396

> <r_glide_res:A42_dist>
1.86909500563496

> <r_glide_res:A42_Eint>
-50.957964083275

> <r_glide_res:A16_vdw>
0.825172874027158

> <r_glide_res:A16_coul>
-47.4234970996771

> <r_glide_res:A16_hbond>
-0.2

> <r_glide_res:A16_dist>
1.76126957425667

> <r_glide_res:A16_Eint>
-46.7983242256499

> <s_m_source_file>
ligprep_Nicaido_neutral.maegz

> <i_m_source_file_index>
5

> <i_lp_mmshare_version>
58128

> <i_f3d_flags>
0

> <s_lp_Force_Field>
S-OPLS

> <r_lp_Energy>
52.616387

> <b_lp_Chiralities_Consistent>
1

> <s_lp_Variant>
Ceftizoxime-1

> <s_epik_input>
W05IMl1jKG4xKXNbY0hdYzEvQyg9TlxPW0NIM10pQyg9TylbTkhdW0NAQEhdMkMoPU8pTihbQ0BIXTIzKUMoQyg9TylbT0hdKT1bQ0hdW0NIMl1TMw==

> <s_epik_cmdline>
J2VwaWtfcHl0aG9uJywgJy1waHQnLCAnMC4wJywgJy1waCcsICc3LjQnLCAnLW50JywgJy1tYScsICc1MDAnLCAnLWltYWUnLCAnPGluZmlsZS5tYWU+JywgJy1vbWFlJywgJzxvdXRmaWxlLm1hZT4n

> <r_lp_tautomer_probability>
1

> <r_epik_Ionization_Penalty>
  0.0005

> <r_epik_Ionization_Penalty_Charging>
  0.0000

> <r_epik_Ionization_Penalty_Neutral>
  0.0005

> <r_epik_State_Penalty>
  0.0000

> <r_epik_Charging_Adjusted_Penalty>
4.86746471452517e-05

> <i_epik_Tot_Q>
-1

> <i_epik_Tot_abs_Q>
1

> <s_epik_Chemistry_Notes>
This compound has an imine and may undergo hydrolysis. This compound contains an acetal/aminal-like group ( X-CH(R)-Y where X, Y are N, S, or O) that may be acid/base labile, releasing an aldehyde.

> <s_m_subgroup_title>
glide-dock_Nicaido_neutral_pv1

> <s_m_subgroupid>
glide-dock_Nicaido_neutral_pv1

> <b_m_subgroup_collapsed>
0

$$$$
Nalidixic acid
                    3D
 Schrodinger Suite 2022-2.
 28 29  0  0  1  0            999 V2000
  -36.8180  -25.2281  -26.0680 C   0  0  0  0  0  0
  -36.8362  -24.9748  -27.5848 C   0  0  0  0  0  0
  -35.5395  -25.0915  -28.2735 N   0  0  0  0  0  0
  -34.3198  -25.3324  -27.6422 C   0  0  0  0  0  0
  -33.1221  -25.4759  -28.2542 C   0  0  0  0  0  0
  -33.0956  -25.3831  -29.7445 C   0  0  0  0  0  0
  -34.3809  -25.0462  -30.4162 C   0  0  0  0  0  0
  -35.5804  -24.9105  -29.6748 C   0  0  0  0  0  0
  -36.7607  -24.6029  -30.2699 N   0  0  0  0  0  0
  -36.7850  -24.4050  -31.6037 C   0  0  0  0  0  0
  -35.6433  -24.5071  -32.4133 C   0  0  0  0  0  0
  -34.4208  -24.8369  -31.8094 C   0  0  0  0  0  0
  -38.1307  -24.0659  -32.2079 C   0  0  0  0  0  0
  -32.0728  -25.5491  -30.4132 O   0  0  0  0  0  0
  -31.8303  -25.7307  -27.3929 C   0  0  0  0  0  0
  -30.7686  -25.9492  -28.0130 O   0  5  0  0  0  0
  -31.9305  -25.6090  -26.1506 O   0  0  0  0  0  0
  -37.8250  -25.1482  -25.6538 H   0  0  0  0  0  0
  -36.4483  -26.2267  -25.8334 H   0  0  0  0  0  0
  -36.1999  -24.4972  -25.5475 H   0  0  0  0  0  0
  -37.2408  -23.9768  -27.7664 H   0  0  0  0  0  0
  -37.5332  -25.6830  -28.0373 H   0  0  0  0  0  0
  -34.3782  -25.3938  -26.5681 H   0  0  0  0  0  0
  -35.7004  -24.3508  -33.4802 H   0  0  0  0  0  0
  -33.5290  -24.9232  -32.4137 H   0  0  0  0  0  0
  -38.0128  -23.6463  -33.2073 H   0  0  0  0  0  0
  -38.7424  -24.9645  -32.2872 H   0  0  0  0  0  0
  -38.6577  -23.3357  -31.5934 H   0  0  0  0  0  0
  1  2  1  0  0  0
  1 18  1  0  0  0
  1 19  1  0  0  0
  1 20  1  0  0  0
  2  3  1  0  0  0
  2 21  1  0  0  0
  2 22  1  0  0  0
  3  8  1  0  0  0
  3  4  1  0  0  0
  4  5  2  0  0  0
  4 23  1  0  0  0
  5  6  1  0  0  0
  5 15  1  0  0  0
  6  7  1  0  0  0
  6 14  2  0  0  0
  7 12  2  0  0  0
  7  8  1  0  0  0
  8  9  2  0  0  0
  9 10  1  0  0  0
 10 11  2  0  0  0
 10 13  1  0  0  0
 11 12  1  0  0  0
 11 24  1  0  0  0
 12 25  1  0  0  0
 13 26  1  0  0  0
 13 27  1  0  0  0
 13 28  1  0  0  0
 15 16  1  0  0  0
 15 17  2  0  0  0
M  CHG  1  16  -1
M  END
> <s_m_entry_id>
27720

> <s_m_entry_name>
data_maestro.31

> <s_m_Source_Path>
C:\Users\olshana1\Git\GramNeg-Accumulation\Gram Negative Permeation - OmpF

> <s_m_Source_File>
data_maestro.csv

> <i_m_Source_File_Index>
31

> <s_m_job_name>
glide-dock_Nicaido_neutral

> <s_i_glide_gridfile>
3POX-grid

> <i_i_glide_lignum>
40

> <i_i_glide_rotatable_bonds>
2

> <r_i_docking_score>
-3.93225960252155

> <r_i_glide_ligand_efficiency>
-0.23130938838362

> <r_i_glide_ligand_efficiency_sa>
-0.594761571535523

> <r_i_glide_ligand_efficiency_ln>
-1.02583896318187

> <r_i_glide_gscore>
-3.93225960252155

> <r_i_glide_lipo>
-0.440370187629448

> <r_i_glide_hbond>
-0.2

> <r_i_glide_metal>
0

> <r_i_glide_rewards>
-1.84588303793417

> <r_i_glide_evdw>
-19.1588096618652

> <r_i_glide_ecoul>
-2.63182950019836

> <r_i_glide_erotb>
0

> <r_i_glide_esite>
-0.0932914688349071

> <r_i_glide_emodel>
-30.7444674624947

> <r_i_glide_energy>
-21.7906391620636

> <r_i_glide_einternal>
6.00366306304932

> <i_i_glide_confnum>
1

> <i_i_glide_posenum>
318

> <r_i_glide_eff_state_penalty>
0

> <r_glide_res:A132_vdw>
-0.0862216766476129

> <r_glide_res:A132_coul>
-21.0964376943842

> <r_glide_res:A132_hbond>
0

> <r_glide_res:A132_dist>
6.31948061864676

> <r_glide_res:A132_Eint>
-21.1826593710318

> <r_glide_res:A117_vdw>
-0.0222470543800752

> <r_glide_res:A117_coul>
16.1876124270976

> <r_glide_res:A117_hbond>
0

> <r_glide_res:A117_dist>
10.498918363247

> <r_glide_res:A117_Eint>
16.1653653727175

> <r_glide_res:A113_vdw>
-0.0301781660414955

> <r_glide_res:A113_coul>
17.1883477742278

> <r_glide_res:A113_hbond>
0

> <r_glide_res:A113_dist>
8.60130047444604

> <r_glide_res:A113_Eint>
17.1581696081863

> <r_glide_res:A82_vdw>
-1.25983091543709

> <r_glide_res:A82_coul>
-37.4341209188282

> <r_glide_res:A82_hbond>
0

> <r_glide_res:A82_dist>
2.74858645848476

> <r_glide_res:A82_Eint>
-38.6939518342653

> <r_glide_res:A42_vdw>
-1.1556162303

> <r_glide_res:A42_coul>
-47.4128332693457

> <r_glide_res:A42_hbond>
-0.2

> <r_glide_res:A42_dist>
1.78315791070982

> <r_glide_res:A42_Eint>
-48.7684494996457

> <r_glide_res:A16_vdw>
-3.69968269583036

> <r_glide_res:A16_coul>
-32.2070029749121

> <r_glide_res:A16_hbond>
0

> <r_glide_res:A16_dist>
2.68469646615045

> <r_glide_res:A16_Eint>
-35.9066856707425

> <s_m_source_file>
ligprep_Nicaido_neutral.maegz

> <i_m_source_file_index>
31

> <i_lp_mmshare_version>
58128

> <i_f3d_flags>
0

> <s_lp_Force_Field>
S-OPLS

> <r_lp_Energy>
25.048869

> <b_lp_Chiralities_Consistent>
1

> <s_lp_Variant>
Nalidixic acid-1

> <s_epik_input>
Tz1jMWMoQyg9TylbT0hdKVtjSF1uKFtDSDJdW0NIM10pYyhjMTIpbmMoW0NIM10pW2NIXVtjSF0y

> <s_epik_cmdline>
J2VwaWtfcHl0aG9uJywgJy1waHQnLCAnMC4wJywgJy1waCcsICc3LjQnLCAnLW50JywgJy1tYScsICc1MDAnLCAnLWltYWUnLCAnPGluZmlsZS5tYWU+JywgJy1vbWFlJywgJzxvdXRmaWxlLm1hZT4n

> <r_lp_tautomer_probability>
1

> <r_epik_Ionization_Penalty>
  0.0215

> <r_epik_Ionization_Penalty_Charging>
  0.0215

> <r_epik_Ionization_Penalty_Neutral>
  0.0000

> <r_epik_State_Penalty>
  0.0000

> <r_epik_Charging_Adjusted_Penalty>
0.0214516940307923

> <i_epik_Tot_Q>
-1

> <i_epik_Tot_abs_Q>
1

> <s_m_subgroup_title>
glide-dock_Nicaido_neutral_pv1

> <s_m_subgroupid>
glide-dock_Nicaido_neutral_pv1

> <b_m_subgroup_collapsed>
0

$$$$
Cefmetazole
                    3D
 Schrodinger Suite 2022-2.
 46 48  0  0  1  0            999 V2000
  -33.4677  -21.5961  -20.6600 C   0  0  0  0  0  0
  -32.9769  -22.5091  -21.6731 N   0  0  0  0  0  0
  -31.9719  -22.4120  -22.5531 C   0  0  0  0  0  0
  -30.8904  -21.0323  -22.6791 S   0  0  0  0  0  0
  -29.7623  -21.5491  -21.3588 C   0  0  0  0  0  0
  -28.3246  -21.1182  -21.6058 C   0  0  0  0  0  0
  -27.4646  -21.8441  -22.3673 C   0  0  0  0  0  0
  -26.1395  -21.4492  -22.5917 N   0  0  0  0  0  0
  -25.7027  -20.0689  -22.4786 C   0  0  2  0  0  0
  -24.2820  -20.5714  -22.8425 C   0  0  1  0  0  0
  -23.3792  -20.6649  -21.7392 O   0  0  0  0  0  0
  -22.7189  -19.4555  -21.3858 C   0  0  0  0  0  0
  -24.9506  -21.9513  -23.0884 C   0  0  0  0  0  0
  -24.6395  -23.0405  -23.5242 O   0  0  0  0  0  0
  -23.6859  -19.9432  -24.0317 N   0  0  0  0  0  0
  -24.1251  -19.9496  -25.3022 C   0  0  0  0  0  0
  -23.1913  -19.3193  -26.3298 C   0  0  0  0  0  0
  -21.8437  -20.4375  -26.8155 S   0  0  0  0  0  0
  -22.7686  -21.8713  -27.4482 C   0  0  0  0  0  0
  -22.6354  -23.0264  -26.5441 C   0  0  0  0  0  0
  -22.5296  -23.9390  -25.8354 N   0  0  0  0  0  0
  -25.1855  -20.4563  -25.6695 O   0  0  0  0  0  0
  -26.1678  -19.4993  -20.8124 S   0  0  0  0  0  0
  -27.9553  -19.7890  -20.9433 C   0  0  0  0  0  0
  -27.8850  -23.1495  -23.1081 C   0  0  0  0  0  0
  -27.9741  -23.0833  -24.3573 O   0  5  0  0  0  0
  -27.9693  -24.1900  -22.4133 O   0  0  0  0  0  0
  -31.8836  -23.5127  -23.2908 N   0  0  0  0  0  0
  -32.9038  -24.3124  -22.8118 N   0  0  0  0  0  0
  -33.5572  -23.7213  -21.8525 N   0  0  0  0  0  0
  -33.1706  -21.9499  -19.6731 H   0  0  0  0  0  0
  -33.0597  -20.5963  -20.8125 H   0  0  0  0  0  0
  -34.5558  -21.5405  -20.7017 H   0  0  0  0  0  0
  -29.8055  -22.6317  -21.2408 H   0  0  0  0  0  0
  -30.1227  -21.1501  -20.4133 H   0  0  0  0  0  0
  -26.1674  -19.4477  -23.2477 H   0  0  0  0  0  0
  -22.1794  -19.5991  -20.4499 H   0  0  0  0  0  0
  -21.9905  -19.1620  -22.1422 H   0  0  0  0  0  0
  -23.4208  -18.6337  -21.2438 H   0  0  0  0  0  0
  -22.8130  -19.4654  -23.8700 H   0  0  0  0  0  0
  -22.7656  -18.4007  -25.9241 H   0  0  0  0  0  0
  -23.7555  -19.0288  -27.2130 H   0  0  0  0  0  0
  -22.3691  -22.1577  -28.4166 H   0  0  0  0  0  0
  -23.8214  -21.6367  -27.6004 H   0  0  0  0  0  0
  -28.4075  -18.9773  -21.5141 H   0  0  0  0  0  0
  -28.3724  -19.7402  -19.9365 H   0  0  0  0  0  0
  1  2  1  0  0  0
  1 31  1  0  0  0
  1 32  1  0  0  0
  1 33  1  0  0  0
  2 30  1  0  0  0
  2  3  1  0  0  0
  3  4  1  0  0  0
  3 28  2  0  0  0
  4  5  1  0  0  0
  5  6  1  0  0  0
  5 34  1  0  0  0
  5 35  1  0  0  0
  6 24  1  0  0  0
  6  7  2  0  0  0
  7  8  1  0  0  0
  7 25  1  0  0  0
  8 13  1  0  0  0
  8  9  1  0  0  0
  9 10  1  0  0  0
  9 23  1  0  0  0
  9 36  1  0  0  0
 10 11  1  0  0  0
 10 13  1  0  0  0
 10 15  1  0  0  0
 11 12  1  0  0  0
 12 37  1  0  0  0
 12 38  1  0  0  0
 12 39  1  0  0  0
 13 14  2  0  0  0
 15 16  1  0  0  0
 15 40  1  0  0  0
 16 17  1  0  0  0
 16 22  2  0  0  0
 17 18  1  0  0  0
 17 41  1  0  0  0
 17 42  1  0  0  0
 18 19  1  0  0  0
 19 20  1  0  0  0
 19 43  1  0  0  0
 19 44  1  0  0  0
 20 21  3  0  0  0
 23 24  1  0  0  0
 24 45  1  0  0  0
 24 46  1  0  0  0
 25 26  1  0  0  0
 25 27  2  0  0  0
 28 29  1  0  0  0
 29 30  2  0  0  0
M  CHG  1  26  -1
M  END
> <s_m_entry_id>
27721

> <s_m_entry_name>
data_maestro.3

> <s_m_Source_Path>
C:\Users\olshana1\Git\GramNeg-Accumulation\Gram Negative Permeation - OmpF

> <s_m_Source_File>
data_maestro.csv

> <i_m_Source_File_Index>
3

> <s_m_job_name>
glide-dock_Nicaido_neutral

> <s_i_glide_gridfile>
3POX-grid

> <i_i_glide_lignum>
3

> <i_i_glide_rotatable_bonds>
10

> <r_i_docking_score>
-3.93067708382635

> <r_i_glide_ligand_efficiency>
-0.131022569460878

> <r_i_glide_ligand_efficiency_sa>
-0.407117586380876

> <r_i_glide_ligand_efficiency_ln>
-0.893092661602441

> <r_i_glide_gscore>
-3.93067708382635

> <r_i_glide_lipo>
-0.260701258563739

> <r_i_glide_hbond>
-0.400557522672809

> <r_i_glide_metal>
0

> <r_i_glide_rewards>
-0.200831252822225

> <r_i_glide_evdw>
-32.0043983459473

> <r_i_glide_ecoul>
-9.83862113952637

> <r_i_glide_erotb>
0.638850535935238

> <r_i_glide_esite>
-0.631424497476497

> <r_i_glide_emodel>
-54.6483298452418

> <r_i_glide_energy>
-41.8430194854736

> <r_i_glide_einternal>
17.524715423584

> <i_i_glide_confnum>
107

> <i_i_glide_posenum>
188

> <r_i_glide_eff_state_penalty>
0

> <r_glide_res:A132_vdw>
-1.36970500195839

> <r_glide_res:A132_coul>
-41.3003250099054

> <r_glide_res:A132_hbond>
-0.00747741092529592

> <r_glide_res:A132_dist>
2.45174652349129

> <r_glide_res:A132_Eint>
-42.6775074227891

> <r_glide_res:A117_vdw>
-4.05171645830512

> <r_glide_res:A117_coul>
12.8800644071359

> <r_glide_res:A117_hbond>
0

> <r_glide_res:A117_dist>
2.51466319252093

> <r_glide_res:A117_Eint>
8.82834794883073

> <r_glide_res:A113_vdw>
-4.18213690642502

> <r_glide_res:A113_coul>
15.1754869590889

> <r_glide_res:A113_hbond>
0

> <r_glide_res:A113_dist>
2.29908572960137

> <r_glide_res:A113_Eint>
10.9933500526639

> <r_glide_res:A82_vdw>
-0.255560664765253

> <r_glide_res:A82_coul>
-57.0319050194739

> <r_glide_res:A82_hbond>
-0.249988340919073

> <r_glide_res:A82_dist>
1.80923527099088

> <r_glide_res:A82_Eint>
-57.5374540251582

> <r_glide_res:A42_vdw>
-2.21782733523553

> <r_glide_res:A42_coul>
-48.4428951114491

> <r_glide_res:A42_hbond>
-0.14309177082844

> <r_glide_res:A42_dist>
2.12078812192524

> <r_glide_res:A42_Eint>
-50.8038142175131

> <r_glide_res:A16_vdw>
-0.330713400080559

> <r_glide_res:A16_coul>
-26.7567511490472

> <r_glide_res:A16_hbond>
0

> <r_glide_res:A16_dist>
4.81935241491998

> <r_glide_res:A16_Eint>
-27.0874645491277

> <s_m_source_file>
ligprep_Nicaido_neutral.maegz

> <i_m_source_file_index>
3

> <i_lp_mmshare_version>
58128

> <i_f3d_flags>
0

> <s_lp_Force_Field>
S-OPLS

> <r_lp_Energy>
32.161431

> <b_lp_Chiralities_Consistent>
1

> <s_lp_Variant>
Cefmetazole-1

> <s_epik_input>
bjFubmMobjFbQ0gzXSlTW0NIMl1DKD1DMkMoPU8pW09IXSlbQ0gyXVNbQ0BIXShOMjMpW0NAXShDMz1PKShPW0NIM10pW05IXUMoPU8pW0NIMl1TW0NIMl1DI04=

> <s_epik_cmdline>
J2VwaWtfcHl0aG9uJywgJy1waHQnLCAnMC4wJywgJy1waCcsICc3LjQnLCAnLW50JywgJy1tYScsICc1MDAnLCAnLWltYWUnLCAnPGluZmlsZS5tYWU+JywgJy1vbWFlJywgJzxvdXRmaWxlLm1hZT4n

> <r_lp_tautomer_probability>
1

> <r_epik_Ionization_Penalty>
  0.0000

> <r_epik_Ionization_Penalty_Charging>
  0.0000

> <r_epik_Ionization_Penalty_Neutral>
  0.0000

> <r_epik_State_Penalty>
  0.0000

> <r_epik_Charging_Adjusted_Penalty>
8.27330724987756e-06

> <i_epik_Tot_Q>
-1

> <i_epik_Tot_abs_Q>
1

> <s_epik_Chemistry_Notes>
This compound contains an acetal/aminal-like group ( X-CH(R)-Y where X, Y are N, S, or O) that may be acid/base labile, releasing an aldehyde.

> <s_m_subgroup_title>
glide-dock_Nicaido_neutral_pv1

> <s_m_subgroupid>
glide-dock_Nicaido_neutral_pv1

> <b_m_subgroup_collapsed>
0

$$$$
Cefaclor
                    3D
 Schrodinger Suite 2022-2.
 37 39  0  0  1  0            999 V2000
  -25.6135  -23.9496  -21.7602 O   0  0  0  0  0  0
  -25.7275  -23.0048  -22.5082 C   0  0  0  0  0  0
  -26.5803  -21.7191  -22.6234 C   0  0  2  0  0  0
  -25.4107  -21.2078  -23.4901 C   0  0  1  0  0  0
  -25.0544  -22.6126  -23.6388 N   0  0  0  0  0  0
  -24.0546  -23.0722  -24.5075 C   0  0  0  0  0  0
  -23.6082  -24.5576  -24.3237 C   0  0  0  0  0  0
  -22.5549  -24.7495  -23.6729 O   0  5  0  0  0  0
  -24.3689  -25.4293  -24.8117 O   0  0  0  0  0  0
  -23.5605  -22.2855  -25.4895 C   0  0  0  0  0  0
  -23.9892  -20.8525  -25.7744 C   0  0  0  0  0  0
  -25.6581  -20.5080  -25.1544 S   0  0  0  0  0  0
  -22.3692  -22.8168  -26.6196 Cl  0  0  0  0  0  0
  -26.7133  -21.0214  -21.3497 N   0  0  0  0  0  0
  -27.3523  -21.5487  -20.2927 C   0  0  0  0  0  0
  -27.3214  -20.7497  -18.9854 C   0  0  2  0  0  0
  -25.9617  -20.9410  -18.3946 C   0  0  0  0  0  0
  -24.9856  -19.9218  -18.4890 C   0  0  0  0  0  0
  -23.7189  -20.0583  -17.8882 C   0  0  0  0  0  0
  -23.4007  -21.2263  -17.1727 C   0  0  0  0  0  0
  -24.3518  -22.2561  -17.0671 C   0  0  0  0  0  0
  -25.6124  -22.1122  -17.6761 C   0  0  0  0  0  0
  -28.3689  -21.1920  -18.0870 N   0  0  0  0  0  0
  -27.9510  -22.6286  -20.3503 O   0  0  0  0  0  0
  -27.5153  -21.8231  -23.1769 H   0  0  0  0  0  0
  -24.6451  -20.6583  -22.9351 H   0  0  0  0  0  0
  -23.2863  -20.1720  -25.2932 H   0  0  0  0  0  0
  -23.9595  -20.6480  -26.8439 H   0  0  0  0  0  0
  -26.2709  -20.1189  -21.2497 H   0  0  0  0  0  0
  -27.4989  -19.6975  -19.2140 H   0  0  0  0  0  0
  -25.2215  -19.0051  -19.0099 H   0  0  0  0  0  0
  -22.9979  -19.2576  -17.9646 H   0  0  0  0  0  0
  -22.4358  -21.3268  -16.6984 H   0  0  0  0  0  0
  -24.1246  -23.1508  -16.5071 H   0  0  0  0  0  0
  -26.3389  -22.9044  -17.5637 H   0  0  0  0  0  0
  -29.0776  -20.4667  -18.0136 H   0  0  0  0  0  0
  -28.8922  -21.9549  -18.5004 H   0  0  0  0  0  0
  1  2  2  0  0  0
  2  5  1  0  0  0
  2  3  1  0  0  0
  3  4  1  0  0  0
  3 14  1  0  0  0
  3 25  1  0  0  0
  4 12  1  0  0  0
  4  5  1  0  0  0
  4 26  1  0  0  0
  5  6  1  0  0  0
  6  7  1  0  0  0
  6 10  2  0  0  0
  7  8  1  0  0  0
  7  9  2  0  0  0
 10 11  1  0  0  0
 10 13  1  0  0  0
 11 12  1  0  0  0
 11 27  1  0  0  0
 11 28  1  0  0  0
 14 15  1  0  0  0
 14 29  1  0  0  0
 15 16  1  0  0  0
 15 24  2  0  0  0
 16 17  1  0  0  0
 16 23  1  0  0  0
 16 30  1  0  0  0
 17 22  1  0  0  0
 17 18  2  0  0  0
 18 19  1  0  0  0
 18 31  1  0  0  0
 19 20  2  0  0  0
 19 32  1  0  0  0
 20 21  1  0  0  0
 20 33  1  0  0  0
 21 22  2  0  0  0
 21 34  1  0  0  0
 22 35  1  0  0  0
 23 36  1  0  0  0
 23 37  1  0  0  0
M  CHG  1   8  -1
M  END
> <s_m_entry_id>
27722

> <s_m_entry_name>
data_maestro.15

> <s_m_Source_Path>
C:\Users\olshana1\Git\GramNeg-Accumulation\Gram Negative Permeation - OmpF

> <s_m_Source_File>
data_maestro.csv

> <i_m_Source_File_Index>
15

> <s_m_job_name>
glide-dock_Nicaido_neutral

> <s_i_glide_gridfile>
3POX-grid

> <i_i_glide_lignum>
20

> <i_i_glide_rotatable_bonds>
5

> <r_i_docking_score>
-3.93006030477027

> <r_i_glide_ligand_efficiency>
-0.163752512698761

> <r_i_glide_ligand_efficiency_sa>
-0.472343981652716

> <r_i_glide_ligand_efficiency_ln>
-0.940643769647884

> <r_i_glide_gscore>
-4.04646030477027

> <r_i_glide_lipo>
0

> <r_i_glide_hbond>
-0.653096459410758

> <r_i_glide_metal>
0

> <r_i_glide_rewards>
-0.907920683716822

> <r_i_glide_evdw>
-23.6241073608398

> <r_i_glide_ecoul>
-9.44441986083984

> <r_i_glide_erotb>
0.429266414571003

> <r_i_glide_esite>
-0.316841229045726

> <r_i_glide_emodel>
-50.3006828538785

> <r_i_glide_energy>
-33.0685272216797

> <r_i_glide_einternal>
3.36686635017395

> <i_i_glide_confnum>
4

> <i_i_glide_posenum>
268

> <r_i_glide_eff_state_penalty>
0.1164

> <r_glide_res:A132_vdw>
-1.00818120770602

> <r_glide_res:A132_coul>
-39.2779195133975

> <r_glide_res:A132_hbond>
-0.135852067569067

> <r_glide_res:A132_dist>
1.99567649884741

> <r_glide_res:A132_Eint>
-40.4219527886726

> <r_glide_res:A117_vdw>
-2.02094496487659

> <r_glide_res:A117_coul>
15.705611044527

> <r_glide_res:A117_hbond>
0

> <r_glide_res:A117_dist>
3.61577449562616

> <r_glide_res:A117_Eint>
13.6846660796504

> <r_glide_res:A113_vdw>
0.320368035062341

> <r_glide_res:A113_coul>
11.6584318802408

> <r_glide_res:A113_hbond>
-0.159039928471662

> <r_glide_res:A113_dist>
2.00839494133004

> <r_glide_res:A113_Eint>
11.8197599868314

> <r_glide_res:A82_vdw>
-1.32651048369762

> <r_glide_res:A82_coul>
-41.9244782146211

> <r_glide_res:A82_hbond>
-0.158204463370029

> <r_glide_res:A82_dist>
1.98424094987535

> <r_glide_res:A82_Eint>
-43.4091931616888

> <r_glide_res:A42_vdw>
-2.36935720517072

> <r_glide_res:A42_coul>
-31.6631568005381

> <r_glide_res:A42_hbond>
0

> <r_glide_res:A42_dist>
2.86978029105847

> <r_glide_res:A42_Eint>
-34.0325140057089

> <r_glide_res:A16_vdw>
-0.160693610578659

> <r_glide_res:A16_coul>
-16.8929633890771

> <r_glide_res:A16_hbond>
0

> <r_glide_res:A16_dist>
5.54055016358814

> <r_glide_res:A16_Eint>
-17.0536569996558

> <s_m_source_file>
ligprep_Nicaido_neutral.maegz

> <i_m_source_file_index>
15

> <i_lp_mmshare_version>
58128

> <i_f3d_flags>
0

> <s_lp_Force_Field>
S-OPLS

> <r_lp_Energy>
48.098991

> <b_lp_Chiralities_Consistent>
1

> <s_lp_Variant>
Cefaclor-1

> <s_epik_input>
UzFbQ0gyXUMoQ2wpPUMoQyg9TylbT0hdKU4oW0NAQEhdMTIpQyg9TylbQ0BIXTJbTkhdQyg9TylbQ0BASF0oW05IMl0pYzNbY0hdW2NIXVtjSF1bY0hdW2NIXTM=

> <s_epik_cmdline>
J2VwaWtfcHl0aG9uJywgJy1waHQnLCAnMC4wJywgJy1waCcsICc3LjQnLCAnLW50JywgJy1tYScsICc1MDAnLCAnLWltYWUnLCAnPGluZmlsZS5tYWU+JywgJy1vbWFlJywgJzxvdXRmaWxlLm1hZT4n

> <r_epik_Ionization_Penalty>
  0.1164

> <r_epik_Ionization_Penalty_Charging>
  0.0000

> <r_epik_Ionization_Penalty_Neutral>
  0.1164

> <r_epik_State_Penalty>
  0.1164

> <r_epik_Charging_Adjusted_Penalty>
0.116403072965043

> <i_epik_Tot_Q>
-1

> <i_epik_Tot_abs_Q>
1

> <s_epik_Chemistry_Notes>
This compound contains an acetal/aminal-like group ( X-CH(R)-Y where X, Y are N, S, or O) that may be acid/base labile, releasing an aldehyde.

> <s_m_subgroup_title>
glide-dock_Nicaido_neutral_pv1

> <s_m_subgroupid>
glide-dock_Nicaido_neutral_pv1

> <b_m_subgroup_collapsed>
0

$$$$
Ampicillin
                    3D
 Schrodinger Suite 2022-2.
 42 44  0  0  1  0            999 V2000
  -21.7916  -23.3905  -22.9859 C   0  0  0  0  0  0
  -22.4034  -22.9895  -24.3443 C   0  0  0  0  0  0
  -23.7610  -23.6948  -24.7004 C   0  0  2  0  0  0
  -24.7670  -22.7779  -24.2079 N   0  0  0  0  0  0
  -24.6208  -21.3425  -24.3361 C   0  0  2  0  0  0
  -22.8100  -21.2014  -24.2217 S   0  0  0  0  0  0
  -25.6056  -21.1885  -23.1662 C   0  0  2  0  0  0
  -25.7660  -22.7233  -23.2627 C   0  0  0  0  0  0
  -26.4231  -23.5851  -22.7183 O   0  0  0  0  0  0
  -26.7776  -20.3646  -23.5090 N   0  0  0  0  0  0
  -27.6914  -20.5552  -24.4788 C   0  0  0  0  0  0
  -28.7284  -19.4322  -24.6839 C   0  0  2  0  0  0
  -29.7844  -19.6620  -23.6516 C   0  0  0  0  0  0
  -30.6747  -20.7656  -23.7028 C   0  0  0  0  0  0
  -31.6773  -20.9473  -22.7293 C   0  0  0  0  0  0
  -31.8159  -20.0200  -21.6816 C   0  0  0  0  0  0
  -30.9490  -18.9166  -21.6132 C   0  0  0  0  0  0
  -29.9473  -18.7476  -22.5859 C   0  0  0  0  0  0
  -29.2824  -19.4706  -26.0323 N   0  0  0  0  0  0
  -27.7100  -21.5498  -25.2133 O   0  0  0  0  0  0
  -23.9689  -25.1757  -24.3134 C   0  0  0  0  0  0
  -24.3689  -25.9485  -25.2133 O   0  5  0  0  0  0
  -23.7442  -25.5492  -23.1408 O   0  0  0  0  0  0
  -21.3696  -23.1979  -25.4631 C   0  0  0  0  0  0
  -21.4244  -24.4165  -22.9841 H   0  0  0  0  0  0
  -20.9459  -22.7496  -22.7357 H   0  0  0  0  0  0
  -22.5209  -23.2940  -22.1817 H   0  0  0  0  0  0
  -23.8778  -23.6510  -25.7842 H   0  0  0  0  0  0
  -24.9773  -20.9626  -25.2944 H   0  0  0  0  0  0
  -25.1050  -20.8564  -22.2555 H   0  0  0  0  0  0
  -26.8659  -19.5028  -22.9859 H   0  0  0  0  0  0
  -28.2376  -18.4657  -24.5450 H   0  0  0  0  0  0
  -30.5872  -21.4886  -24.4984 H   0  0  0  0  0  0
  -32.3389  -21.7995  -22.7811 H   0  0  0  0  0  0
  -32.5708  -20.1581  -20.9199 H   0  0  0  0  0  0
  -31.0403  -18.2070  -20.8021 H   0  0  0  0  0  0
  -29.2886  -17.8966  -22.5068 H   0  0  0  0  0  0
  -28.7931  -20.1757  -26.5669 H   0  0  0  0  0  0
  -30.2590  -19.7197  -26.0016 H   0  0  0  0  0  0
  -21.1365  -24.2510  -25.6100 H   0  0  0  0  0  0
  -21.7370  -22.8099  -26.4130 H   0  0  0  0  0  0
  -20.4365  -22.6785  -25.2420 H   0  0  0  0  0  0
  1  2  1  0  0  0
  1 25  1  0  0  0
  1 26  1  0  0  0
  1 27  1  0  0  0
  2  6  1  0  0  0
  2  3  1  0  0  0
  2 24  1  0  0  0
  3  4  1  0  0  0
  3 21  1  0  0  0
  3 28  1  0  0  0
  4  8  1  0  0  0
  4  5  1  0  0  0
  5  6  1  0  0  0
  5  7  1  0  0  0
  5 29  1  0  0  0
  7  8  1  0  0  0
  7 10  1  0  0  0
  7 30  1  0  0  0
  8  9  2  0  0  0
 10 11  1  0  0  0
 10 31  1  0  0  0
 11 12  1  0  0  0
 11 20  2  0  0  0
 12 13  1  0  0  0
 12 19  1  0  0  0
 12 32  1  0  0  0
 13 18  1  0  0  0
 13 14  2  0  0  0
 14 15  1  0  0  0
 14 33  1  0  0  0
 15 16  2  0  0  0
 15 34  1  0  0  0
 16 17  1  0  0  0
 16 35  1  0  0  0
 17 18  2  0  0  0
 17 36  1  0  0  0
 18 37  1  0  0  0
 19 38  1  0  0  0
 19 39  1  0  0  0
 21 22  1  0  0  0
 21 23  2  0  0  0
 24 40  1  0  0  0
 24 41  1  0  0  0
 24 42  1  0  0  0
M  CHG  1  22  -1
M  END
> <s_m_entry_id>
27723

> <s_m_entry_name>
data_maestro.18

> <s_m_Source_Path>
C:\Users\olshana1\Git\GramNeg-Accumulation\Gram Negative Permeation - OmpF

> <s_m_Source_File>
data_maestro.csv

> <i_m_Source_File_Index>
18

> <s_m_job_name>
glide-dock_Nicaido_neutral

> <s_i_glide_gridfile>
3POX-grid

> <i_i_glide_lignum>
23

> <i_i_glide_rotatable_bonds>
5

> <r_i_docking_score>
-3.92295118405063

> <r_i_glide_ligand_efficiency>
-0.163456299335443

> <r_i_glide_ligand_efficiency_sa>
-0.47148955446169

> <r_i_glide_ligand_efficiency_ln>
-0.93894223084338

> <r_i_glide_gscore>
-4.02885118405063

> <r_i_glide_lipo>
0

> <r_i_glide_hbond>
-0.609093627503484

> <r_i_glide_metal>
0

> <r_i_glide_rewards>
-1.03350194401428

> <r_i_glide_evdw>
-24.4649314880371

> <r_i_glide_ecoul>
-8.43594932556152

> <r_i_glide_erotb>
0.470487855572594

> <r_i_glide_esite>
-0.368104494869377

> <r_i_glide_emodel>
-49.1784106572535

> <r_i_glide_energy>
-32.9008808135986

> <r_i_glide_einternal>
4.95447826385498

> <i_i_glide_confnum>
4

> <i_i_glide_posenum>
385

> <r_i_glide_eff_state_penalty>
0.1059

> <r_glide_res:A132_vdw>
-1.51815991664359

> <r_glide_res:A132_coul>
-38.7379601121178

> <r_glide_res:A132_hbond>
0

> <r_glide_res:A132_dist>
2.83913999014865

> <r_glide_res:A132_Eint>
-40.2561200287614

> <r_glide_res:A117_vdw>
-3.98176756875805

> <r_glide_res:A117_coul>
14.5126814923937

> <r_glide_res:A117_hbond>
0

> <r_glide_res:A117_dist>
2.32680299827823

> <r_glide_res:A117_Eint>
10.5309139236356

> <r_glide_res:A113_vdw>
-1.81052028036242

> <r_glide_res:A113_coul>
16.3176985710458

> <r_glide_res:A113_hbond>
0

> <r_glide_res:A113_dist>
2.72382102774224

> <r_glide_res:A113_Eint>
14.5071782906834

> <r_glide_res:A82_vdw>
-1.16921218364554

> <r_glide_res:A82_coul>
-50.5655433709919

> <r_glide_res:A82_hbond>
-0.359261342470196

> <r_glide_res:A82_dist>
1.90652251451282

> <r_glide_res:A82_Eint>
-52.0940168971077

> <r_glide_res:A42_vdw>
-2.60951610187191

> <r_glide_res:A42_coul>
-37.531097712881

> <r_glide_res:A42_hbond>
-0.16

> <r_glide_res:A42_dist>
1.93737496247459

> <r_glide_res:A42_Eint>
-40.3006138147529

> <r_glide_res:A16_vdw>
-0.728003952193785

> <r_glide_res:A16_coul>
-18.3816118424992

> <r_glide_res:A16_hbond>
0

> <r_glide_res:A16_dist>
2.37271364954159

> <r_glide_res:A16_Eint>
-19.109615794693

> <s_m_source_file>
ligprep_Nicaido_neutral.maegz

> <i_m_source_file_index>
18

> <i_lp_mmshare_version>
58128

> <i_f3d_flags>
0

> <s_lp_Force_Field>
S-OPLS

> <r_lp_Energy>
33.736216

> <b_lp_Chiralities_Consistent>
1

> <s_lp_Variant>
Ampicillin-1

> <s_epik_input>
W09IXUMoPU8pW0NAQEhdMUMoW0NIM10pKFtDSDNdKVNbQ0BASF0oTjEyKVtDQEhdKEMyPU8pW05IXUMoPU8pW0NAQEhdKFtOSDJdKWMzW2NIXVtjSF1bY0hdW2NIXVtjSF0z

> <s_epik_cmdline>
J2VwaWtfcHl0aG9uJywgJy1waHQnLCAnMC4wJywgJy1waCcsICc3LjQnLCAnLW50JywgJy1tYScsICc1MDAnLCAnLWltYWUnLCAnPGluZmlsZS5tYWU+JywgJy1vbWFlJywgJzxvdXRmaWxlLm1hZT4n

> <r_epik_Ionization_Penalty>
  0.1060

> <r_epik_Ionization_Penalty_Charging>
  0.0000

> <r_epik_Ionization_Penalty_Neutral>
  0.1059

> <r_epik_State_Penalty>
  0.1059

> <r_epik_Charging_Adjusted_Penalty>
0.105949346496876

> <i_epik_Tot_Q>
-1

> <i_epik_Tot_abs_Q>
1

> <s_epik_Chemistry_Notes>
This compound contains an acetal/aminal-like group ( X-CH(R)-Y where X, Y are N, S, or O) that may be acid/base labile, releasing an aldehyde.

> <s_m_subgroup_title>
glide-dock_Nicaido_neutral_pv1

> <s_m_subgroupid>
glide-dock_Nicaido_neutral_pv1

> <b_m_subgroup_collapsed>
0

$$$$
Piperacillin
                    3D
 Schrodinger Suite 2022-2.
 62 65  0  0  1  0            999 V2000
  -28.6355  -25.6524  -17.5714 C   0  0  0  0  0  0
  -29.3978  -24.3328  -17.7545 C   0  0  0  0  0  0
  -28.7687  -23.4524  -18.7439 N   0  0  0  0  0  0
  -28.0355  -22.3095  -18.1950 C   0  0  0  0  0  0
  -27.2169  -21.5056  -19.2258 C   0  0  0  0  0  0
  -27.7271  -21.5345  -20.6150 N   0  0  0  0  0  0
  -28.3162  -22.6871  -21.0586 C   0  0  0  0  0  0
  -29.0984  -23.5491  -20.0438 C   0  0  0  0  0  0
  -29.9248  -24.3497  -20.4844 O   0  0  0  0  0  0
  -28.3038  -23.1004  -22.2271 O   0  0  0  0  0  0
  -27.4217  -20.4583  -21.4125 C   0  0  0  0  0  0
  -27.9576  -20.4756  -22.6460 N   0  0  0  0  0  0
  -27.6636  -19.6278  -23.7904 C   0  0  2  0  0  0
  -28.9415  -19.2571  -24.5129 C   0  0  0  0  0  0
  -30.2258  -19.7483  -24.1472 C   0  0  0  0  0  0
  -31.3962  -19.3549  -24.8265 C   0  0  0  0  0  0
  -31.3197  -18.4508  -25.8992 C   0  0  0  0  0  0
  -30.0674  -17.9502  -26.2890 C   0  0  0  0  0  0
  -28.9073  -18.3532  -25.6025 C   0  0  0  0  0  0
  -26.8753  -20.5570  -24.7231 C   0  0  0  0  0  0
  -25.5608  -20.3045  -24.8448 N   0  0  0  0  0  0
  -24.5840  -21.2482  -25.3902 C   0  0  1  0  0  0
  -23.1459  -20.9837  -24.8965 C   0  0  2  0  0  0
  -23.2217  -22.2332  -24.1674 N   0  0  0  0  0  0
  -24.4717  -22.5603  -24.5841 C   0  0  0  0  0  0
  -25.1694  -23.5174  -24.3219 O   0  0  0  0  0  0
  -22.4828  -22.5754  -22.9847 C   0  0  2  0  0  0
  -22.1808  -21.1859  -22.3104 C   0  0  0  0  0  0
  -23.1182  -21.0017  -21.1005 C   0  0  0  0  0  0
  -22.6162  -19.8863  -23.5435 S   0  0  0  0  0  0
  -20.7261  -20.9818  -21.8436 C   0  0  0  0  0  0
  -21.3564  -23.5310  -23.4143 C   0  0  0  0  0  0
  -21.5687  -24.7494  -23.2132 O   0  5  0  0  0  0
  -20.3620  -23.0834  -24.0236 O   0  0  0  0  0  0
  -27.4179  -21.5491  -25.2234 O   0  0  0  0  0  0
  -26.6726  -19.5490  -21.0592 O   0  0  0  0  0  0
  -28.9823  -26.1786  -16.6823 H   0  0  0  0  0  0
  -28.7699  -26.3223  -18.4133 H   0  0  0  0  0  0
  -27.5683  -25.4774  -17.4642 H   0  0  0  0  0  0
  -29.4644  -23.7997  -16.8135 H   0  0  0  0  0  0
  -30.4344  -24.5432  -18.0187 H   0  0  0  0  0  0
  -28.7692  -21.6380  -17.7465 H   0  0  0  0  0  0
  -27.3882  -22.6330  -17.3777 H   0  0  0  0  0  0
  -26.1994  -21.9005  -19.2517 H   0  0  0  0  0  0
  -27.1283  -20.4864  -18.8401 H   0  0  0  0  0  0
  -28.5065  -21.2938  -22.8691 H   0  0  0  0  0  0
  -27.0752  -18.7496  -23.5267 H   0  0  0  0  0  0
  -30.3454  -20.4309  -23.3199 H   0  0  0  0  0  0
  -32.3564  -19.7364  -24.5094 H   0  0  0  0  0  0
  -32.2159  -18.1299  -26.4090 H   0  0  0  0  0  0
  -29.9939  -17.2383  -27.0990 H   0  0  0  0  0  0
  -27.9668  -17.9491  -25.9246 H   0  0  0  0  0  0
  -25.1919  -19.4606  -24.4230 H   0  0  0  0  0  0
  -24.6393  -21.3671  -26.4729 H   0  0  0  0  0  0
  -22.4040  -21.0068  -25.6964 H   0  0  0  0  0  0
  -23.1367  -23.1534  -22.3283 H   0  0  0  0  0  0
  -22.9197  -21.7419  -20.3254 H   0  0  0  0  0  0
  -24.1645  -21.0986  -21.3925 H   0  0  0  0  0  0
  -22.9999  -20.0143  -20.6518 H   0  0  0  0  0  0
  -20.4075  -21.7750  -21.1672 H   0  0  0  0  0  0
  -20.0323  -20.9549  -22.6839 H   0  0  0  0  0  0
  -20.6146  -20.0335  -21.3161 H   0  0  0  0  0  0
  1  2  1  0  0  0
  1 37  1  0  0  0
  1 38  1  0  0  0
  1 39  1  0  0  0
  2  3  1  0  0  0
  2 40  1  0  0  0
  2 41  1  0  0  0
  3  8  1  0  0  0
  3  4  1  0  0  0
  4  5  1  0  0  0
  4 42  1  0  0  0
  4 43  1  0  0  0
  5  6  1  0  0  0
  5 44  1  0  0  0
  5 45  1  0  0  0
  6  7  1  0  0  0
  6 11  1  0  0  0
  7  8  1  0  0  0
  7 10  2  0  0  0
  8  9  2  0  0  0
 11 12  1  0  0  0
 11 36  2  0  0  0
 12 13  1  0  0  0
 12 46  1  0  0  0
 13 14  1  0  0  0
 13 20  1  0  0  0
 13 47  1  0  0  0
 14 19  1  0  0  0
 14 15  2  0  0  0
 15 16  1  0  0  0
 15 48  1  0  0  0
 16 17  2  0  0  0
 16 49  1  0  0  0
 17 18  1  0  0  0
 17 50  1  0  0  0
 18 19  2  0  0  0
 18 51  1  0  0  0
 19 52  1  0  0  0
 20 21  1  0  0  0
 20 35  2  0  0  0
 21 22  1  0  0  0
 21 53  1  0  0  0
 22 25  1  0  0  0
 22 23  1  0  0  0
 22 54  1  0  0  0
 23 30  1  0  0  0
 23 24  1  0  0  0
 23 55  1  0  0  0
 24 25  1  0  0  0
 24 27  1  0  0  0
 25 26  2  0  0  0
 27 28  1  0  0  0
 27 32  1  0  0  0
 27 56  1  0  0  0
 28 29  1  0  0  0
 28 30  1  0  0  0
 28 31  1  0  0  0
 29 57  1  0  0  0
 29 58  1  0  0  0
 29 59  1  0  0  0
 31 60  1  0  0  0
 31 61  1  0  0  0
 31 62  1  0  0  0
 32 33  1  0  0  0
 32 34  2  0  0  0
M  CHG  1  33  -1
M  END
> <s_m_entry_id>
27724

> <s_m_entry_name>
data_maestro.11

> <s_m_Source_Path>
C:\Users\olshana1\Git\GramNeg-Accumulation\Gram Negative Permeation - OmpF

> <s_m_Source_File>
data_maestro.csv

> <i_m_Source_File_Index>
11

> <s_m_job_name>
glide-dock_Nicaido_neutral

> <s_i_glide_gridfile>
3POX-grid

> <i_i_glide_lignum>
15

> <i_i_glide_rotatable_bonds>
9

> <r_i_docking_score>
-3.9160159171976

> <r_i_glide_ligand_efficiency>
-0.108778219922156

> <r_i_glide_ligand_efficiency_sa>
-0.359177768018178

> <r_i_glide_ligand_efficiency_ln>
-0.85436887460896

> <r_i_glide_gscore>
-3.9160159171976

> <r_i_glide_lipo>
0

> <r_i_glide_hbond>
-0.427756888914436

> <r_i_glide_metal>
0

> <r_i_glide_rewards>
0.00615296591363524

> <r_i_glide_evdw>
-33.7957420349121

> <r_i_glide_ecoul>
-9.69516944885254

> <r_i_glide_erotb>
0.461572583116075

> <r_i_glide_esite>
-0.811922058239392

> <r_i_glide_emodel>
-59.0653368356748

> <r_i_glide_energy>
-43.4909114837646

> <r_i_glide_einternal>
11.9573211669922

> <i_i_glide_confnum>
125

> <i_i_glide_posenum>
197

> <r_i_glide_eff_state_penalty>
0

> <r_glide_res:A132_vdw>
-1.52077532458296

> <r_glide_res:A132_coul>
-25.9028904643882

> <r_glide_res:A132_hbond>
-0.0677568889144359

> <r_glide_res:A132_dist>
2.16508608974372

> <r_glide_res:A132_Eint>
-27.4914226778856

> <r_glide_res:A117_vdw>
-5.56131020121829

> <r_glide_res:A117_coul>
14.6286685098929

> <r_glide_res:A117_hbond>
0

> <r_glide_res:A117_dist>
2.22844828075273

> <r_glide_res:A117_Eint>
9.06735830867464

> <r_glide_res:A113_vdw>
-3.14473545640568

> <r_glide_res:A113_coul>
8.54157515827775

> <r_glide_res:A113_hbond>
0

> <r_glide_res:A113_dist>
2.53552649759541

> <r_glide_res:A113_Eint>
5.39683970187207

> <r_glide_res:A82_vdw>
-2.01162921003689

> <r_glide_res:A82_coul>
-33.6884844595428

> <r_glide_res:A82_hbond>
0

> <r_glide_res:A82_dist>
2.75385824031044

> <r_glide_res:A82_Eint>
-35.7001136695797

> <r_glide_res:A42_vdw>
0.190176124229439

> <r_glide_res:A42_coul>
-33.3671721926216

> <r_glide_res:A42_hbond>
-0.16

> <r_glide_res:A42_dist>
1.82139268643168

> <r_glide_res:A42_Eint>
-33.3369960683922

> <r_glide_res:A16_vdw>
-0.896922931553702

> <r_glide_res:A16_coul>
-19.8129432110568

> <r_glide_res:A16_hbond>
0

> <r_glide_res:A16_dist>
3.65085736342341

> <r_glide_res:A16_Eint>
-20.7098661426105

> <s_m_source_file>
ligprep_Nicaido_neutral.maegz

> <i_m_source_file_index>
11

> <i_lp_mmshare_version>
58128

> <i_f3d_flags>
0

> <s_lp_Force_Field>
S-OPLS

> <r_lp_Energy>
67.572455

> <b_lp_Chiralities_Consistent>
1

> <s_lp_Variant>
Piperacillin-1

> <s_epik_input>
W0NIM11bQ0gyXU4xW0NIMl1bQ0gyXU4oQyg9TylDMT1PKUMoPU8pW05IXVtDQEhdKGMyW2NIXVtjSF1bY0hdW2NIXVtjSF0yKUMoPU8pW05IXVtDQEBIXTNDKD1PKU4oW0NAQEhdMzQpW0NASF0oQyhTNCkoW0NIM10pW0NIM10pQyg9TylbT0hd

> <s_epik_cmdline>
J2VwaWtfcHl0aG9uJywgJy1waHQnLCAnMC4wJywgJy1waCcsICc3LjQnLCAnLW50JywgJy1tYScsICc1MDAnLCAnLWltYWUnLCAnPGluZmlsZS5tYWU+JywgJy1vbWFlJywgJzxvdXRmaWxlLm1hZT4n

> <r_lp_tautomer_probability>
1

> <r_epik_Ionization_Penalty>
  0.0049

> <r_epik_Ionization_Penalty_Charging>
  0.0000

> <r_epik_Ionization_Penalty_Neutral>
  0.0049

> <r_epik_State_Penalty>
  0.0000

> <r_epik_Charging_Adjusted_Penalty>
1.13204004886318e-05

> <i_epik_Tot_Q>
-1

> <i_epik_Tot_abs_Q>
1

> <s_epik_Chemistry_Notes>
This compound contains an acetal/aminal-like group ( X-CH(R)-Y where X, Y are N, S, or O) that may be acid/base labile, releasing an aldehyde.

> <s_m_subgroup_title>
glide-dock_Nicaido_neutral_pv1

> <s_m_subgroupid>
glide-dock_Nicaido_neutral_pv1

> <b_m_subgroup_collapsed>
0

$$$$
Nocardicin B
                    3D
 Schrodinger Suite 2022-2.
 59 61  0  0  1  0            999 V2000
  -33.5690  -21.9266  -28.8135 O   0  0  0  0  0  0
  -34.6518  -21.3997  -28.6716 C   0  0  0  0  0  0
  -36.0856  -21.8634  -28.4017 C   0  0  2  0  0  0
  -36.4305  -20.3714  -28.3708 C   0  0  0  0  0  0
  -35.0241  -20.0780  -28.6807 N   0  0  0  0  0  0
  -34.2982  -18.8386  -28.9615 C   0  0  2  0  0  0
  -33.1574  -18.5942  -28.0130 C   0  0  0  0  0  0
  -32.0787  -17.7785  -28.4290 C   0  0  0  0  0  0
  -30.9562  -17.5494  -27.6112 C   0  0  0  0  0  0
  -30.8875  -18.1432  -26.3396 C   0  0  0  0  0  0
  -31.9540  -18.9402  -25.8874 C   0  0  0  0  0  0
  -33.0772  -19.1515  -26.7118 C   0  0  0  0  0  0
  -29.7945  -17.9497  -25.5485 O   0  0  0  0  0  0
  -35.2196  -17.6054  -28.9028 C   0  0  0  0  0  0
  -35.5689  -17.1494  -30.0119 O   0  5  0  0  0  0
  -35.6190  -17.1779  -27.7943 O   0  0  0  0  0  0
  -36.2218  -22.4929  -27.0948 N   0  0  0  0  0  0
  -37.3936  -22.7675  -26.4987 C   0  0  0  0  0  0
  -37.2524  -23.2252  -25.0377 C   0  0  0  0  0  0
  -36.0164  -22.7574  -24.3390 C   0  0  0  0  0  0
  -35.2310  -23.6771  -23.6073 C   0  0  0  0  0  0
  -34.0741  -23.2572  -22.9233 C   0  0  0  0  0  0
  -33.6729  -21.9014  -22.9608 C   0  0  0  0  0  0
  -34.4494  -20.9830  -23.6911 C   0  0  0  0  0  0
  -35.6183  -21.3984  -24.3551 C   0  0  0  0  0  0
  -32.5543  -21.4205  -22.3207 O   0  0  0  0  0  0
  -32.1966  -22.0228  -21.0827 C   0  0  0  0  0  0
  -31.0112  -22.9942  -21.2314 C   0  0  0  0  0  0
  -29.6763  -22.2928  -21.5672 C   0  0  2  0  0  0
  -28.6225  -23.3377  -21.9821 C   0  0  0  0  0  0
  -28.4660  -23.5495  -23.2055 O   0  5  0  0  0  0
  -28.0010  -23.9486  -21.0810 O   0  0  0  0  0  0
  -29.1784  -21.5181  -20.4125 N   0  3  0  0  0  0
  -38.0651  -23.9635  -24.3797 N   0  0  0  0  0  0
  -39.1592  -24.4172  -25.1801 O   0  0  0  0  0  0
  -38.4786  -22.6258  -27.0639 O   0  0  0  0  0  0
  -36.5613  -22.4010  -29.2233 H   0  0  0  0  0  0
  -37.1255  -20.0756  -29.1587 H   0  0  0  0  0  0
  -36.7539  -19.9900  -27.4000 H   0  0  0  0  0  0
  -33.9131  -18.9265  -29.9794 H   0  0  0  0  0  0
  -32.1195  -17.3156  -29.4025 H   0  0  0  0  0  0
  -30.1522  -16.9163  -27.9614 H   0  0  0  0  0  0
  -31.9152  -19.3838  -24.9029 H   0  0  0  0  0  0
  -33.8872  -19.7566  -26.3342 H   0  0  0  0  0  0
  -29.2368  -17.2432  -25.8454 H   0  0  0  0  0  0
  -35.3731  -22.6356  -26.5662 H   0  0  0  0  0  0
  -35.5169  -24.7184  -23.5613 H   0  0  0  0  0  0
  -33.5040  -23.9916  -22.3753 H   0  0  0  0  0  0
  -34.1588  -19.9430  -23.7196 H   0  0  0  0  0  0
  -36.2060  -20.6609  -24.8826 H   0  0  0  0  0  0
  -33.0438  -22.5160  -20.6034 H   0  0  0  0  0  0
  -31.9302  -21.2082  -20.4140 H   0  0  0  0  0  0
  -31.2497  -23.7331  -21.9969 H   0  0  0  0  0  0
  -30.9008  -23.5542  -20.3014 H   0  0  0  0  0  0
  -29.8283  -21.5977  -22.3948 H   0  0  0  0  0  0
  -28.3488  -21.0062  -20.6726 H   0  0  0  0  0  0
  -29.8876  -20.8744  -20.0743 H   0  0  0  0  0  0
  -39.7273  -24.8064  -24.5326 H   0  0  0  0  0  0
  -28.9549  -22.1625  -19.6680 H   0  0  0  0  0  0
  1  2  2  0  0  0
  2  5  1  0  0  0
  2  3  1  0  0  0
  3  4  1  0  0  0
  3 17  1  0  0  0
  3 37  1  0  0  0
  4  5  1  0  0  0
  4 38  1  0  0  0
  4 39  1  0  0  0
  5  6  1  0  0  0
  6  7  1  0  0  0
  6 14  1  0  0  0
  6 40  1  0  0  0
  7 12  1  0  0  0
  7  8  2  0  0  0
  8  9  1  0  0  0
  8 41  1  0  0  0
  9 10  2  0  0  0
  9 42  1  0  0  0
 10 11  1  0  0  0
 10 13  1  0  0  0
 11 12  2  0  0  0
 11 43  1  0  0  0
 12 44  1  0  0  0
 13 45  1  0  0  0
 14 15  1  0  0  0
 14 16  2  0  0  0
 17 18  1  0  0  0
 17 46  1  0  0  0
 18 19  1  0  0  0
 18 36  2  0  0  0
 19 20  1  0  0  0
 19 34  2  3  0  0
 20 25  1  0  0  0
 20 21  2  0  0  0
 21 22  1  0  0  0
 21 47  1  0  0  0
 22 23  2  0  0  0
 22 48  1  0  0  0
 23 24  1  0  0  0
 23 26  1  0  0  0
 24 25  2  0  0  0
 24 49  1  0  0  0
 25 50  1  0  0  0
 26 27  1  0  0  0
 27 28  1  0  0  0
 27 51  1  0  0  0
 27 52  1  0  0  0
 28 29  1  0  0  0
 28 53  1  0  0  0
 28 54  1  0  0  0
 29 30  1  0  0  0
 29 33  1  0  0  0
 29 55  1  0  0  0
 30 31  1  0  0  0
 30 32  2  0  0  0
 33 56  1  0  0  0
 33 57  1  0  0  0
 33 59  1  0  0  0
 34 35  1  0  0  0
 35 58  1  0  0  0
M  CHG  3  15  -1  31  -1  33   1
M  END
> <s_m_entry_id>
27725

> <s_m_entry_name>
data_maestro.29

> <s_m_Source_Path>
C:\Users\olshana1\Git\GramNeg-Accumulation\Gram Negative Permeation - OmpF

> <s_m_Source_File>
data_maestro.csv

> <i_m_Source_File_Index>
29

> <s_m_job_name>
glide-dock_Nicaido_neutral

> <s_i_glide_gridfile>
3POX-grid

> <i_i_glide_lignum>
37

> <i_i_glide_rotatable_bonds>
14

> <r_i_docking_score>
-3.91583700549059

> <r_i_glide_ligand_efficiency>
-0.108773250152516

> <r_i_glide_ligand_efficiency_sa>
-0.359161358200405

> <r_i_glide_ligand_efficiency_ln>
-0.854329840908125

> <r_i_glide_gscore>
-3.91583700549059

> <r_i_glide_lipo>
-0.024311799846375

> <r_i_glide_hbond>
-0.889456139620258

> <r_i_glide_metal>
0

> <r_i_glide_rewards>
0.161212448214882

> <r_i_glide_evdw>
-22.7683715820313

> <r_i_glide_ecoul>
-17.6542549133301

> <r_i_glide_erotb>
0.900147327125679

> <r_i_glide_esite>
-0.276872025263442

> <r_i_glide_emodel>
-55.9259953041411

> <r_i_glide_energy>
-40.4226264953613

> <r_i_glide_einternal>
14.8969507217407

> <i_i_glide_confnum>
120

> <i_i_glide_posenum>
150

> <r_i_glide_eff_state_penalty>
0

> <r_glide_res:A132_vdw>
1.38878970889918

> <r_glide_res:A132_coul>
-28.5539713052019

> <r_glide_res:A132_hbond>
-0.194000191997826

> <r_glide_res:A132_dist>
1.85833185945908

> <r_glide_res:A132_Eint>
-27.3591817883006

> <r_glide_res:A117_vdw>
-1.65652974621884

> <r_glide_res:A117_coul>
13.0909831614677

> <r_glide_res:A117_hbond>
0

> <r_glide_res:A117_dist>
2.07744298711926

> <r_glide_res:A117_Eint>
11.4344534152489

> <r_glide_res:A113_vdw>
-1.88374909317073

> <r_glide_res:A113_coul>
-15.4837999329792

> <r_glide_res:A113_hbond>
-0.2

> <r_glide_res:A113_dist>
1.99990873762908

> <r_glide_res:A113_Eint>
-17.5675490261499

> <r_glide_res:A82_vdw>
-0.753145148736709

> <r_glide_res:A82_coul>
-34.5492533805506

> <r_glide_res:A82_hbond>
-0.17076821445606

> <r_glide_res:A82_dist>
2.17978903770717

> <r_glide_res:A82_Eint>
-35.4731667437434

> <r_glide_res:A42_vdw>
-0.897105200415244

> <r_glide_res:A42_coul>
-27.4592358318791

> <r_glide_res:A42_hbond>
0

> <r_glide_res:A42_dist>
3.38969135766284

> <r_glide_res:A42_Eint>
-28.3563410322944

> <r_glide_res:A16_vdw>
-2.6621318584999

> <r_glide_res:A16_coul>
-37.56232469191

> <r_glide_res:A16_hbond>
-0.16

> <r_glide_res:A16_dist>
1.97607944565612

> <r_glide_res:A16_Eint>
-40.3844565504099

> <s_m_source_file>
ligprep_Nicaido_neutral.maegz

> <i_m_source_file_index>
29

> <i_lp_mmshare_version>
58128

> <i_f3d_flags>
0

> <s_lp_Force_Field>
S-OPLS

> <r_lp_Energy>
65.715273

> <b_lp_Chiralities_Consistent>
1

> <s_lp_Variant>
Nocardicin B-2

> <s_epik_input>
W2NIXTFbY0hdYyhbT0hdKVtjSF1bY0hdYzFbQ0BIXShDKD1PKVtPSF0pTjJbQ0gyXVtDQEBIXShDMj1PKVtOSF1DKD1PKS9DKD1OL1tPSF0pYzNbY0hdW2NIXWMoW2NIXVtjSF0zKU9bQ0gyXVtDSDJdW0NAQEhdKFtOSDJdKUMoPU8pW09IXQ==

> <s_epik_cmdline>
J2VwaWtfcHl0aG9uJywgJy1waHQnLCAnMC4wJywgJy1waCcsICc3LjQnLCAnLW50JywgJy1tYScsICc1MDAnLCAnLWltYWUnLCAnPGluZmlsZS5tYWU+JywgJy1vbWFlJywgJzxvdXRmaWxlLm1hZT4n

> <r_lp_tautomer_probability>
1

> <r_epik_Ionization_Penalty>
  0.0116

> <r_epik_Ionization_Penalty_Charging>
  0.0086

> <r_epik_Ionization_Penalty_Neutral>
  0.0030

> <r_epik_State_Penalty>
  0.0000

> <r_epik_Charging_Adjusted_Penalty>
0.0085560600321308

> <i_epik_Tot_Q>
-1

> <i_epik_Tot_abs_Q>
3

> <s_epik_Chemistry_Notes>
This compound has an imine and may undergo hydrolysis.

> <s_m_subgroup_title>
glide-dock_Nicaido_neutral_pv1

> <s_m_subgroupid>
glide-dock_Nicaido_neutral_pv1

> <b_m_subgroup_collapsed>
0

$$$$
Nalidixic acid
                    3D
 Schrodinger Suite 2022-2.
 28 29  0  0  1  0            999 V2000
  -36.3458  -22.6460  -27.4710 C   0  0  0  0  0  0
  -36.2533  -24.1779  -27.5130 C   0  0  0  0  0  0
  -35.0641  -24.6432  -28.2288 N   0  0  0  0  0  0
  -33.9250  -25.0437  -27.5432 C   0  0  0  0  0  0
  -32.7819  -25.5083  -28.0998 C   0  0  0  0  0  0
  -32.7367  -25.5824  -29.5931 C   0  0  0  0  0  0
  -33.9522  -25.1311  -30.3314 C   0  0  0  0  0  0
  -35.1004  -24.6766  -29.6379 C   0  0  0  0  0  0
  -36.2228  -24.2756  -30.2829 N   0  0  0  0  0  0
  -36.2440  -24.2984  -31.6319 C   0  0  0  0  0  0
  -35.1526  -24.7314  -32.4039 C   0  0  0  0  0  0
  -33.9888  -25.1497  -31.7400 C   0  0  0  0  0  0
  -37.5243  -23.8262  -32.2870 C   0  0  0  0  0  0
  -31.7486  -25.9780  -30.2134 O   0  0  0  0  0  0
  -31.5786  -25.9388  -27.1678 C   0  0  0  0  0  0
  -30.5278  -26.3501  -27.7092 O   0  5  0  0  0  0
  -31.7123  -25.7180  -25.9437 O   0  0  0  0  0  0
  -37.2243  -22.3263  -26.9103 H   0  0  0  0  0  0
  -35.4680  -22.2137  -26.9902 H   0  0  0  0  0  0
  -36.4225  -22.2212  -28.4720 H   0  0  0  0  0  0
  -37.1571  -24.6020  -27.9521 H   0  0  0  0  0  0
  -36.2260  -24.5574  -26.4910 H   0  0  0  0  0  0
  -34.0275  -24.9640  -26.4695 H   0  0  0  0  0  0
  -35.2002  -24.7510  -33.4832 H   0  0  0  0  0  0
  -33.1450  -25.4938  -32.3172 H   0  0  0  0  0  0
  -37.3572  -23.5629  -33.3321 H   0  0  0  0  0  0
  -38.2748  -24.6152  -32.2470 H   0  0  0  0  0  0
  -37.9171  -22.9472  -31.7744 H   0  0  0  0  0  0
  1  2  1  0  0  0
  1 18  1  0  0  0
  1 19  1  0  0  0
  1 20  1  0  0  0
  2  3  1  0  0  0
  2 21  1  0  0  0
  2 22  1  0  0  0
  3  8  1  0  0  0
  3  4  1  0  0  0
  4  5  2  0  0  0
  4 23  1  0  0  0
  5  6  1  0  0  0
  5 15  1  0  0  0
  6  7  1  0  0  0
  6 14  2  0  0  0
  7 12  2  0  0  0
  7  8  1  0  0  0
  8  9  2  0  0  0
  9 10  1  0  0  0
 10 11  2  0  0  0
 10 13  1  0  0  0
 11 12  1  0  0  0
 11 24  1  0  0  0
 12 25  1  0  0  0
 13 26  1  0  0  0
 13 27  1  0  0  0
 13 28  1  0  0  0
 15 16  1  0  0  0
 15 17  2  0  0  0
M  CHG  1  16  -1
M  END
> <s_m_entry_id>
27726

> <s_m_entry_name>
data_maestro.31

> <s_m_Source_Path>
C:\Users\olshana1\Git\GramNeg-Accumulation\Gram Negative Permeation - OmpF

> <s_m_Source_File>
data_maestro.csv

> <i_m_Source_File_Index>
31

> <s_m_job_name>
glide-dock_Nicaido_neutral

> <s_i_glide_gridfile>
3POX-grid

> <i_i_glide_lignum>
40

> <i_i_glide_rotatable_bonds>
2

> <r_i_docking_score>
-3.9090993136827

> <r_i_glide_ligand_efficiency>
-0.229947018451924

> <r_i_glide_ligand_efficiency_sa>
-0.591258534813794

> <r_i_glide_ligand_efficiency_ln>
-1.01979695957809

> <r_i_glide_gscore>
-3.9090993136827

> <r_i_glide_lipo>
-0.518672598435268

> <r_i_glide_hbond>
-0.199339612574023

> <r_i_glide_metal>
0

> <r_i_glide_rewards>
-1.83263449343167

> <r_i_glide_evdw>
-19.8398208618164

> <r_i_glide_ecoul>
-1.76706516742706

> <r_i_glide_erotb>
0

> <r_i_glide_esite>
-0.101401791036865

> <r_i_glide_emodel>
-33.4803915046842

> <r_i_glide_energy>
-21.6068860292435

> <r_i_glide_einternal>
0.023475419729948

> <i_i_glide_confnum>
1

> <i_i_glide_posenum>
287

> <r_i_glide_eff_state_penalty>
0

> <r_glide_res:A132_vdw>
-0.107082480099433

> <r_glide_res:A132_coul>
-22.0594765224159

> <r_glide_res:A132_hbond>
0

> <r_glide_res:A132_dist>
6.019228602152

> <r_glide_res:A132_Eint>
-22.1665590025153

> <r_glide_res:A117_vdw>
-0.0252494996711581

> <r_glide_res:A117_coul>
16.0323446483062

> <r_glide_res:A117_hbond>
0

> <r_glide_res:A117_dist>
9.83449680409424

> <r_glide_res:A117_Eint>
16.007095148635

> <r_glide_res:A113_vdw>
-0.0325257344308036

> <r_glide_res:A113_coul>
17.3089363684099

> <r_glide_res:A113_hbond>
0

> <r_glide_res:A113_dist>
8.65074659282625

> <r_glide_res:A113_Eint>
17.2764106339791

> <r_glide_res:A82_vdw>
-1.26789831379381

> <r_glide_res:A82_coul>
-40.9145337333893

> <r_glide_res:A82_hbond>
-0.0091571614339471

> <r_glide_res:A82_dist>
2.43335415201389

> <r_glide_res:A82_Eint>
-42.1915892086171

> <r_glide_res:A42_vdw>
-1.21569765516149

> <r_glide_res:A42_coul>
-46.427911042722

> <r_glide_res:A42_hbond>
-0.190182451140076

> <r_glide_res:A42_dist>
1.85809052588447

> <r_glide_res:A42_Eint>
-47.8337911490236

> <r_glide_res:A16_vdw>
-3.96827241832796

> <r_glide_res:A16_coul>
-30.3976030179219

> <r_glide_res:A16_hbond>
0

> <r_glide_res:A16_dist>
2.88917495348657

> <r_glide_res:A16_Eint>
-34.3658754362498

> <s_m_source_file>
ligprep_Nicaido_neutral.maegz

> <i_m_source_file_index>
31

> <i_lp_mmshare_version>
58128

> <i_f3d_flags>
0

> <s_lp_Force_Field>
S-OPLS

> <r_lp_Energy>
25.048869

> <b_lp_Chiralities_Consistent>
1

> <s_lp_Variant>
Nalidixic acid-1

> <s_epik_input>
Tz1jMWMoQyg9TylbT0hdKVtjSF1uKFtDSDJdW0NIM10pYyhjMTIpbmMoW0NIM10pW2NIXVtjSF0y

> <s_epik_cmdline>
J2VwaWtfcHl0aG9uJywgJy1waHQnLCAnMC4wJywgJy1waCcsICc3LjQnLCAnLW50JywgJy1tYScsICc1MDAnLCAnLWltYWUnLCAnPGluZmlsZS5tYWU+JywgJy1vbWFlJywgJzxvdXRmaWxlLm1hZT4n

> <r_lp_tautomer_probability>
1

> <r_epik_Ionization_Penalty>
  0.0215

> <r_epik_Ionization_Penalty_Charging>
  0.0215

> <r_epik_Ionization_Penalty_Neutral>
  0.0000

> <r_epik_State_Penalty>
  0.0000

> <r_epik_Charging_Adjusted_Penalty>
0.0214516940307923

> <i_epik_Tot_Q>
-1

> <i_epik_Tot_abs_Q>
1

> <s_m_subgroup_title>
glide-dock_Nicaido_neutral_pv1

> <s_m_subgroupid>
glide-dock_Nicaido_neutral_pv1

> <b_m_subgroup_collapsed>
0

$$$$
Nocardicin B
                    3D
 Schrodinger Suite 2022-2.
 59 61  0  0  1  0            999 V2000
  -20.8105  -24.1142  -18.8603 O   0  0  0  0  0  0
  -21.9838  -24.3056  -19.1044 C   0  0  0  0  0  0
  -23.3292  -24.0068  -18.4323 C   0  0  2  0  0  0
  -23.9532  -24.6648  -19.6608 C   0  0  0  0  0  0
  -22.6009  -24.9362  -20.1583 N   0  0  0  0  0  0
  -22.0742  -25.6073  -21.3441 C   0  0  2  0  0  0
  -21.4353  -24.5907  -22.2549 C   0  0  0  0  0  0
  -20.0897  -24.7492  -22.6660 C   0  0  0  0  0  0
  -19.4728  -23.8394  -23.5466 C   0  0  0  0  0  0
  -20.1906  -22.7331  -24.0318 C   0  0  0  0  0  0
  -21.5159  -22.5277  -23.6110 C   0  0  0  0  0  0
  -22.1209  -23.4407  -22.7253 C   0  0  0  0  0  0
  -19.5999  -21.8662  -24.9028 O   0  0  0  0  0  0
  -23.1588  -26.3881  -22.1330 C   0  0  0  0  0  0
  -23.5736  -25.9499  -23.2303 O   0  5  0  0  0  0
  -23.5597  -27.4626  -21.6327 O   0  0  0  0  0  0
  -23.6912  -22.5991  -18.3813 N   0  0  0  0  0  0
  -23.3939  -21.7499  -17.3884 C   0  0  0  0  0  0
  -24.0305  -20.3768  -17.5582 C   0  0  0  0  0  0
  -25.2613  -20.3447  -18.4110 C   0  0  0  0  0  0
  -25.3379  -19.5228  -19.5601 C   0  0  0  0  0  0
  -26.5193  -19.4682  -20.3292 C   0  0  0  0  0  0
  -27.6436  -20.2494  -19.9637 C   0  0  0  0  0  0
  -27.5630  -21.0730  -18.8259 C   0  0  0  0  0  0
  -26.3865  -21.1244  -18.0601 C   0  0  0  0  0  0
  -28.8497  -20.2636  -20.6257 O   0  0  0  0  0  0
  -29.0343  -19.5264  -21.8209 C   0  0  0  0  0  0
  -28.4289  -20.3376  -22.9719 C   0  0  0  0  0  0
  -28.7694  -19.8235  -24.3914 C   0  0  2  0  0  0
  -28.7652  -20.9853  -25.4099 C   0  0  0  0  0  0
  -27.9702  -21.9383  -25.2153 O   0  5  0  0  0  0
  -29.5677  -20.9257  -26.3724 O   0  0  0  0  0  0
  -27.8293  -18.7583  -24.8118 N   0  3  0  0  0  0
  -23.5134  -19.3607  -16.9927 N   0  0  0  0  0  0
  -24.3089  -18.1857  -17.2032 O   0  0  0  0  0  0
  -22.6854  -22.0478  -16.4245 O   0  0  0  0  0  0
  -23.5162  -24.5610  -17.5102 H   0  0  0  0  0  0
  -24.5227  -25.5535  -19.4059 H   0  0  0  0  0  0
  -24.5288  -23.9926  -20.3018 H   0  0  0  0  0  0
  -21.3318  -26.3322  -21.0064 H   0  0  0  0  0  0
  -19.5181  -25.5923  -22.3057 H   0  0  0  0  0  0
  -18.4477  -23.9917  -23.8512 H   0  0  0  0  0  0
  -22.0767  -21.6770  -23.9690 H   0  0  0  0  0  0
  -23.1446  -23.2712  -22.4237 H   0  0  0  0  0  0
  -20.1686  -21.1624  -25.1760 H   0  0  0  0  0  0
  -24.2693  -22.2462  -19.1297 H   0  0  0  0  0  0
  -24.4967  -18.9059  -19.8463 H   0  0  0  0  0  0
  -26.5486  -18.8014  -21.1794 H   0  0  0  0  0  0
  -28.4302  -21.6463  -18.5226 H   0  0  0  0  0  0
  -26.3664  -21.7529  -17.1818 H   0  0  0  0  0  0
  -28.6601  -18.5060  -21.7546 H   0  0  0  0  0  0
  -30.1119  -19.4373  -21.9601 H   0  0  0  0  0  0
  -28.8149  -21.3514  -22.8447 H   0  0  0  0  0  0
  -27.3475  -20.4175  -22.8516 H   0  0  0  0  0  0
  -29.7724  -19.3957  -24.3845 H   0  0  0  0  0  0
  -28.1157  -18.3537  -25.6914 H   0  0  0  0  0  0
  -27.8051  -18.0317  -24.1062 H   0  0  0  0  0  0
  -25.1584  -18.5367  -17.4362 H   0  0  0  0  0  0
  -26.8992  -19.1381  -24.9113 H   0  0  0  0  0  0
  1  2  2  0  0  0
  2  5  1  0  0  0
  2  3  1  0  0  0
  3  4  1  0  0  0
  3 17  1  0  0  0
  3 37  1  0  0  0
  4  5  1  0  0  0
  4 38  1  0  0  0
  4 39  1  0  0  0
  5  6  1  0  0  0
  6  7  1  0  0  0
  6 14  1  0  0  0
  6 40  1  0  0  0
  7 12  1  0  0  0
  7  8  2  0  0  0
  8  9  1  0  0  0
  8 41  1  0  0  0
  9 10  2  0  0  0
  9 42  1  0  0  0
 10 11  1  0  0  0
 10 13  1  0  0  0
 11 12  2  0  0  0
 11 43  1  0  0  0
 12 44  1  0  0  0
 13 45  1  0  0  0
 14 15  1  0  0  0
 14 16  2  0  0  0
 17 18  1  0  0  0
 17 46  1  0  0  0
 18 19  1  0  0  0
 18 36  2  0  0  0
 19 20  1  0  0  0
 19 34  2  3  0  0
 20 25  1  0  0  0
 20 21  2  0  0  0
 21 22  1  0  0  0
 21 47  1  0  0  0
 22 23  2  0  0  0
 22 48  1  0  0  0
 23 24  1  0  0  0
 23 26  1  0  0  0
 24 25  2  0  0  0
 24 49  1  0  0  0
 25 50  1  0  0  0
 26 27  1  0  0  0
 27 28  1  0  0  0
 27 51  1  0  0  0
 27 52  1  0  0  0
 28 29  1  0  0  0
 28 53  1  0  0  0
 28 54  1  0  0  0
 29 30  1  0  0  0
 29 33  1  0  0  0
 29 55  1  0  0  0
 30 31  1  0  0  0
 30 32  2  0  0  0
 33 56  1  0  0  0
 33 57  1  0  0  0
 33 59  1  0  0  0
 34 35  1  0  0  0
 35 58  1  0  0  0
M  CHG  3  15  -1  31  -1  33   1
M  END
> <s_m_entry_id>
27727

> <s_m_entry_name>
data_maestro.29

> <s_m_Source_Path>
C:\Users\olshana1\Git\GramNeg-Accumulation\Gram Negative Permeation - OmpF

> <s_m_Source_File>
data_maestro.csv

> <i_m_Source_File_Index>
29

> <s_m_job_name>
glide-dock_Nicaido_neutral

> <s_i_glide_gridfile>
3POX-grid

> <i_i_glide_lignum>
36

> <i_i_glide_rotatable_bonds>
14

> <r_i_docking_score>
-3.90895717194932

> <r_i_glide_ligand_efficiency>
-0.108582143665259

> <r_i_glide_ligand_efficiency_sa>
-0.358530338483443

> <r_i_glide_ligand_efficiency_ln>
-0.852828847101043

> <r_i_glide_gscore>
-3.90895717194932

> <r_i_glide_lipo>
0

> <r_i_glide_hbond>
-0.664605466821668

> <r_i_glide_metal>
0

> <r_i_glide_rewards>
-0.00337272208527093

> <r_i_glide_evdw>
-27.3919658660889

> <r_i_glide_ecoul>
-15.9504432678223

> <r_i_glide_erotb>
0.900147327125679

> <r_i_glide_esite>
-0.378961526690276

> <r_i_glide_emodel>
-64.1888610485422

> <r_i_glide_energy>
-43.3424091339111

> <r_i_glide_einternal>
10.7617664337158

> <i_i_glide_confnum>
333

> <i_i_glide_posenum>
23

> <r_i_glide_eff_state_penalty>
0

> <r_glide_res:A132_vdw>
3.7018568672217

> <r_glide_res:A132_coul>
-44.6069450187867

> <r_glide_res:A132_hbond>
-0.2

> <r_glide_res:A132_dist>
1.63555210746026

> <r_glide_res:A132_Eint>
-41.105088151565

> <r_glide_res:A117_vdw>
-2.97572024679013

> <r_glide_res:A117_coul>
-13.042965533612

> <r_glide_res:A117_hbond>
0

> <r_glide_res:A117_dist>
2.07868273936956

> <r_glide_res:A117_Eint>
-16.0186857804022

> <r_glide_res:A113_vdw>
-1.93934658328492

> <r_glide_res:A113_coul>
12.9611384839989

> <r_glide_res:A113_hbond>
0

> <r_glide_res:A113_dist>
2.85911662822101

> <r_glide_res:A113_Eint>
11.021791900714

> <r_glide_res:A82_vdw>
-1.67010174421259

> <r_glide_res:A82_coul>
-39.1486374436974

> <r_glide_res:A82_hbond>
0

> <r_glide_res:A82_dist>
3.01036600090669

> <r_glide_res:A82_Eint>
-40.81873918791

> <r_glide_res:A42_vdw>
0.930785881124374

> <r_glide_res:A42_coul>
-44.8688229759697

> <r_glide_res:A42_hbond>
-0.209666986620316

> <r_glide_res:A42_dist>
1.8122956648422

> <r_glide_res:A42_Eint>
-44.1477040814657

> <r_glide_res:A16_vdw>
0.490487190323461

> <r_glide_res:A16_coul>
-32.1380462349946

> <r_glide_res:A16_hbond>
-0.2

> <r_glide_res:A16_dist>
1.90608933025323

> <r_glide_res:A16_Eint>
-31.8475590446712

> <s_m_source_file>
ligprep_Nicaido_neutral.maegz

> <i_m_source_file_index>
29

> <i_lp_mmshare_version>
58128

> <i_f3d_flags>
0

> <s_lp_Force_Field>
S-OPLS

> <r_lp_Energy>
60.848016

> <b_lp_Chiralities_Consistent>
1

> <s_lp_Variant>
Nocardicin B-1

> <s_epik_input>
W2NIXTFbY0hdYyhbT0hdKVtjSF1bY0hdYzFbQ0BIXShDKD1PKVtPSF0pTjJbQ0gyXVtDQEBIXShDMj1PKVtOSF1DKD1PKS9DKD1OL1tPSF0pYzNbY0hdW2NIXWMoW2NIXVtjSF0zKU9bQ0gyXVtDSDJdW0NAQEhdKFtOSDJdKUMoPU8pW09IXQ==

> <s_epik_cmdline>
J2VwaWtfcHl0aG9uJywgJy1waHQnLCAnMC4wJywgJy1waCcsICc3LjQnLCAnLW50JywgJy1tYScsICc1MDAnLCAnLWltYWUnLCAnPGluZmlsZS5tYWU+JywgJy1vbWFlJywgJzxvdXRmaWxlLm1hZT4n

> <r_lp_tautomer_probability>
1

> <r_epik_Ionization_Penalty>
  0.0116

> <r_epik_Ionization_Penalty_Charging>
  0.0086

> <r_epik_Ionization_Penalty_Neutral>
  0.0030

> <r_epik_State_Penalty>
  0.0000

> <r_epik_Charging_Adjusted_Penalty>
0.0085560600321308

> <i_epik_Tot_Q>
-1

> <i_epik_Tot_abs_Q>
3

> <s_epik_Chemistry_Notes>
This compound has an imine and may undergo hydrolysis.

> <s_m_subgroup_title>
glide-dock_Nicaido_neutral_pv1

> <s_m_subgroupid>
glide-dock_Nicaido_neutral_pv1

> <b_m_subgroup_collapsed>
0

$$$$
Nalidixic acid
                    3D
 Schrodinger Suite 2022-2.
 28 29  0  0  1  0            999 V2000
  -27.9660  -20.9867  -18.6024 C   0  0  0  0  0  0
  -26.6668  -21.5409  -19.1913 C   0  0  0  0  0  0
  -26.6115  -21.3597  -20.6434 N   0  0  0  0  0  0
  -27.3891  -22.1597  -21.4646 C   0  0  0  0  0  0
  -27.4500  -22.0980  -22.8140 C   0  0  0  0  0  0
  -26.5859  -21.0852  -23.4919 C   0  0  0  0  0  0
  -25.7988  -20.1752  -22.6031 C   0  0  0  0  0  0
  -25.8271  -20.3252  -21.1934 C   0  0  0  0  0  0
  -25.0965  -19.5362  -20.3693 N   0  0  0  0  0  0
  -24.3290  -18.5671  -20.9060 C   0  0  0  0  0  0
  -24.2499  -18.3290  -22.2907 C   0  0  0  0  0  0
  -25.0045  -19.1462  -23.1518 C   0  0  0  0  0  0
  -23.5249  -17.7450  -19.9231 C   0  0  0  0  0  0
  -26.4893  -21.0195  -24.7208 O   0  0  0  0  0  0
  -28.4081  -23.0820  -23.5698 C   0  0  0  0  0  0
  -28.5177  -22.9787  -24.8125 O   0  5  0  0  0  0
  -28.9298  -23.9763  -22.8644 O   0  0  0  0  0  0
  -27.9785  -21.0961  -17.5200 H   0  0  0  0  0  0
  -28.0908  -19.9321  -18.8395 H   0  0  0  0  0  0
  -28.8328  -21.5160  -18.9962 H   0  0  0  0  0  0
  -26.6200  -22.6110  -18.9828 H   0  0  0  0  0  0
  -25.8101  -21.1117  -18.6776 H   0  0  0  0  0  0
  -27.9979  -22.8550  -20.9042 H   0  0  0  0  0  0
  -23.6364  -17.5367  -22.6956 H   0  0  0  0  0  0
  -24.9665  -18.9779  -24.2180 H   0  0  0  0  0  0
  -22.7798  -17.1381  -20.4406 H   0  0  0  0  0  0
  -24.1814  -17.0902  -19.3482 H   0  0  0  0  0  0
  -22.9971  -18.3942  -19.2238 H   0  0  0  0  0  0
  1  2  1  0  0  0
  1 18  1  0  0  0
  1 19  1  0  0  0
  1 20  1  0  0  0
  2  3  1  0  0  0
  2 21  1  0  0  0
  2 22  1  0  0  0
  3  8  1  0  0  0
  3  4  1  0  0  0
  4  5  2  0  0  0
  4 23  1  0  0  0
  5  6  1  0  0  0
  5 15  1  0  0  0
  6  7  1  0  0  0
  6 14  2  0  0  0
  7 12  2  0  0  0
  7  8  1  0  0  0
  8  9  2  0  0  0
  9 10  1  0  0  0
 10 11  2  0  0  0
 10 13  1  0  0  0
 11 12  1  0  0  0
 11 24  1  0  0  0
 12 25  1  0  0  0
 13 26  1  0  0  0
 13 27  1  0  0  0
 13 28  1  0  0  0
 15 16  1  0  0  0
 15 17  2  0  0  0
M  CHG  1  16  -1
M  END
> <s_m_entry_id>
27728

> <s_m_entry_name>
data_maestro.31

> <s_m_Source_Path>
C:\Users\olshana1\Git\GramNeg-Accumulation\Gram Negative Permeation - OmpF

> <s_m_Source_File>
data_maestro.csv

> <i_m_Source_File_Index>
31

> <s_m_job_name>
glide-dock_Nicaido_neutral

> <s_i_glide_gridfile>
3POX-grid

> <i_i_glide_lignum>
40

> <i_i_glide_rotatable_bonds>
2

> <r_i_docking_score>
-3.89829172870448

> <r_i_glide_ligand_efficiency>
-0.229311278159087

> <r_i_glide_ligand_efficiency_sa>
-0.589623867503927

> <r_i_glide_ligand_efficiency_ln>
-1.01697750133036

> <r_i_glide_gscore>
-3.89829172870448

> <r_i_glide_lipo>
-0.10323379215241

> <r_i_glide_hbond>
-0.565948527364857

> <r_i_glide_metal>
0

> <r_i_glide_rewards>
-1.83254086363636

> <r_i_glide_evdw>
-15.5412092208862

> <r_i_glide_ecoul>
-2.90489482879639

> <r_i_glide_erotb>
0

> <r_i_glide_esite>
-0.183773860187081

> <r_i_glide_emodel>
-29.3819843158555

> <r_i_glide_energy>
-18.4461040496826

> <r_i_glide_einternal>
1.83300697803497

> <i_i_glide_confnum>
1

> <i_i_glide_posenum>
341

> <r_i_glide_eff_state_penalty>
0

> <r_glide_res:A132_vdw>
-1.14169698639509

> <r_glide_res:A132_coul>
-31.3318452426138

> <r_glide_res:A132_hbond>
0

> <r_glide_res:A132_dist>
2.88140263447525

> <r_glide_res:A132_Eint>
-32.4735422290088

> <r_glide_res:A117_vdw>
-3.30615183720306

> <r_glide_res:A117_coul>
23.5563843872246

> <r_glide_res:A117_hbond>
0

> <r_glide_res:A117_dist>
2.46540493807154

> <r_glide_res:A117_Eint>
20.2502325500215

> <r_glide_res:A113_vdw>
-1.23245689781539

> <r_glide_res:A113_coul>
25.3040417646681

> <r_glide_res:A113_hbond>
0

> <r_glide_res:A113_dist>
2.60425299054304

> <r_glide_res:A113_Eint>
24.0715848668527

> <r_glide_res:A82_vdw>
-0.0424316833838174

> <r_glide_res:A82_coul>
-46.8839225937176

> <r_glide_res:A82_hbond>
-0.264849295935852

> <r_glide_res:A82_dist>
1.90619388063612

> <r_glide_res:A82_Eint>
-47.1912035730373

> <r_glide_res:A42_vdw>
-0.0819159439790355

> <r_glide_res:A42_coul>
-49.2153908554161

> <r_glide_res:A42_hbond>
-0.301099231429005

> <r_glide_res:A42_dist>
1.95682782843651

> <r_glide_res:A42_Eint>
-49.5984060308242

> <r_glide_res:A16_vdw>
-0.219164734338037

> <r_glide_res:A16_coul>
-29.3816973103305

> <r_glide_res:A16_hbond>
0

> <r_glide_res:A16_dist>
4.17037608127281

> <r_glide_res:A16_Eint>
-29.6008620446685

> <s_m_source_file>
ligprep_Nicaido_neutral.maegz

> <i_m_source_file_index>
31

> <i_lp_mmshare_version>
58128

> <i_f3d_flags>
0

> <s_lp_Force_Field>
S-OPLS

> <r_lp_Energy>
25.048869

> <b_lp_Chiralities_Consistent>
1

> <s_lp_Variant>
Nalidixic acid-1

> <s_epik_input>
Tz1jMWMoQyg9TylbT0hdKVtjSF1uKFtDSDJdW0NIM10pYyhjMTIpbmMoW0NIM10pW2NIXVtjSF0y

> <s_epik_cmdline>
J2VwaWtfcHl0aG9uJywgJy1waHQnLCAnMC4wJywgJy1waCcsICc3LjQnLCAnLW50JywgJy1tYScsICc1MDAnLCAnLWltYWUnLCAnPGluZmlsZS5tYWU+JywgJy1vbWFlJywgJzxvdXRmaWxlLm1hZT4n

> <r_lp_tautomer_probability>
1

> <r_epik_Ionization_Penalty>
  0.0215

> <r_epik_Ionization_Penalty_Charging>
  0.0215

> <r_epik_Ionization_Penalty_Neutral>
  0.0000

> <r_epik_State_Penalty>
  0.0000

> <r_epik_Charging_Adjusted_Penalty>
0.0214516940307923

> <i_epik_Tot_Q>
-1

> <i_epik_Tot_abs_Q>
1

> <s_m_subgroup_title>
glide-dock_Nicaido_neutral_pv1

> <s_m_subgroupid>
glide-dock_Nicaido_neutral_pv1

> <b_m_subgroup_collapsed>
0

$$$$
Piperacillin
                    3D
 Schrodinger Suite 2022-2.
 62 65  0  0  1  0            999 V2000
  -31.3026  -18.1833  -26.4109 C   0  0  0  0  0  0
  -31.6682  -19.2983  -25.4200 C   0  0  0  0  0  0
  -30.4705  -19.8369  -24.7688 N   0  0  0  0  0  0
  -30.1375  -19.2734  -23.4639 C   0  0  0  0  0  0
  -28.6174  -19.1118  -23.3317 C   0  0  0  0  0  0
  -27.8468  -20.3225  -23.6907 N   0  0  0  0  0  0
  -28.4115  -21.2222  -24.5597 C   0  0  0  0  0  0
  -29.7049  -20.7993  -25.3288 C   0  0  0  0  0  0
  -29.9647  -21.3535  -26.4042 O   0  0  0  0  0  0
  -27.9683  -22.3499  -24.8132 O   0  0  0  0  0  0
  -26.5851  -20.4111  -23.1541 C   0  0  0  0  0  0
  -25.7575  -21.3284  -23.6890 N   0  0  0  0  0  0
  -24.3899  -21.6303  -23.2773 C   0  0  2  0  0  0
  -23.4325  -21.3646  -24.4017 C   0  0  0  0  0  0
  -22.1434  -20.8509  -24.1214 C   0  0  0  0  0  0
  -21.2086  -20.5978  -25.1439 C   0  0  0  0  0  0
  -21.5462  -20.8540  -26.4830 C   0  0  0  0  0  0
  -22.8205  -21.3599  -26.7915 C   0  0  0  0  0  0
  -23.7514  -21.6023  -25.7626 C   0  0  0  0  0  0
  -24.2368  -23.1267  -22.9401 C   0  0  0  0  0  0
  -23.0937  -23.4885  -22.3451 N   0  0  0  0  0  0
  -22.8498  -24.8073  -21.7791 C   0  0  1  0  0  0
  -21.3974  -24.9933  -21.3198 C   0  0  2  0  0  0
  -21.8882  -25.0280  -19.9598 N   0  0  0  0  0  0
  -23.2050  -24.8643  -20.2891 C   0  0  0  0  0  0
  -24.2084  -24.7504  -19.6189 O   0  0  0  0  0  0
  -21.0967  -24.6696  -18.8128 C   0  0  2  0  0  0
  -20.2058  -23.4922  -19.3465 C   0  0  0  0  0  0
  -20.9078  -22.1526  -19.0552 C   0  0  0  0  0  0
  -20.1251  -23.6917  -21.1737 S   0  0  0  0  0  0
  -18.7834  -23.4350  -18.7525 C   0  0  0  0  0  0
  -20.3985  -25.9490  -18.3227 C   0  0  0  0  0  0
  -20.7688  -26.3823  -17.2134 O   0  5  0  0  0  0
  -19.5692  -26.5250  -19.0640 O   0  0  0  0  0  0
  -25.1380  -23.9336  -23.1924 O   0  0  0  0  0  0
  -26.1866  -19.6822  -22.2450 O   0  0  0  0  0  0
  -32.1944  -17.7863  -26.8967 H   0  0  0  0  0  0
  -30.8118  -17.3523  -25.9016 H   0  0  0  0  0  0
  -30.6279  -18.5386  -27.1891 H   0  0  0  0  0  0
  -32.2094  -20.0923  -25.9364 H   0  0  0  0  0  0
  -32.3606  -18.9130  -24.6698 H   0  0  0  0  0  0
  -30.6124  -18.3008  -23.3202 H   0  0  0  0  0  0
  -30.5211  -19.9289  -22.6787 H   0  0  0  0  0  0
  -28.4171  -18.7574  -22.3183 H   0  0  0  0  0  0
  -28.2917  -18.3241  -24.0127 H   0  0  0  0  0  0
  -26.1516  -21.9298  -24.3975 H   0  0  0  0  0  0
  -24.1127  -21.0524  -22.3933 H   0  0  0  0  0  0
  -21.8617  -20.6389  -23.1000 H   0  0  0  0  0  0
  -20.2345  -20.2012  -24.8979 H   0  0  0  0  0  0
  -20.8340  -20.6588  -27.2718 H   0  0  0  0  0  0
  -23.0849  -21.5568  -27.8200 H   0  0  0  0  0  0
  -24.7277  -21.9731  -26.0327 H   0  0  0  0  0  0
  -22.3938  -22.7804  -22.1673 H   0  0  0  0  0  0
  -23.2099  -25.6426  -22.3814 H   0  0  0  0  0  0
  -20.9564  -25.9427  -21.6289 H   0  0  0  0  0  0
  -21.7507  -24.3193  -18.0114 H   0  0  0  0  0  0
  -20.9854  -21.9697  -17.9822 H   0  0  0  0  0  0
  -21.9181  -22.1287  -19.4647 H   0  0  0  0  0  0
  -20.3606  -21.3149  -19.4900 H   0  0  0  0  0  0
  -18.8119  -23.3926  -17.6623 H   0  0  0  0  0  0
  -18.1827  -24.2960  -19.0432 H   0  0  0  0  0  0
  -18.2516  -22.5500  -19.1014 H   0  0  0  0  0  0
  1  2  1  0  0  0
  1 37  1  0  0  0
  1 38  1  0  0  0
  1 39  1  0  0  0
  2  3  1  0  0  0
  2 40  1  0  0  0
  2 41  1  0  0  0
  3  8  1  0  0  0
  3  4  1  0  0  0
  4  5  1  0  0  0
  4 42  1  0  0  0
  4 43  1  0  0  0
  5  6  1  0  0  0
  5 44  1  0  0  0
  5 45  1  0  0  0
  6  7  1  0  0  0
  6 11  1  0  0  0
  7  8  1  0  0  0
  7 10  2  0  0  0
  8  9  2  0  0  0
 11 12  1  0  0  0
 11 36  2  0  0  0
 12 13  1  0  0  0
 12 46  1  0  0  0
 13 14  1  0  0  0
 13 20  1  0  0  0
 13 47  1  0  0  0
 14 19  1  0  0  0
 14 15  2  0  0  0
 15 16  1  0  0  0
 15 48  1  0  0  0
 16 17  2  0  0  0
 16 49  1  0  0  0
 17 18  1  0  0  0
 17 50  1  0  0  0
 18 19  2  0  0  0
 18 51  1  0  0  0
 19 52  1  0  0  0
 20 21  1  0  0  0
 20 35  2  0  0  0
 21 22  1  0  0  0
 21 53  1  0  0  0
 22 25  1  0  0  0
 22 23  1  0  0  0
 22 54  1  0  0  0
 23 30  1  0  0  0
 23 24  1  0  0  0
 23 55  1  0  0  0
 24 25  1  0  0  0
 24 27  1  0  0  0
 25 26  2  0  0  0
 27 28  1  0  0  0
 27 32  1  0  0  0
 27 56  1  0  0  0
 28 29  1  0  0  0
 28 30  1  0  0  0
 28 31  1  0  0  0
 29 57  1  0  0  0
 29 58  1  0  0  0
 29 59  1  0  0  0
 31 60  1  0  0  0
 31 61  1  0  0  0
 31 62  1  0  0  0
 32 33  1  0  0  0
 32 34  2  0  0  0
M  CHG  1  33  -1
M  END
> <s_m_entry_id>
27729

> <s_m_entry_name>
data_maestro.11

> <s_m_Source_Path>
C:\Users\olshana1\Git\GramNeg-Accumulation\Gram Negative Permeation - OmpF

> <s_m_Source_File>
data_maestro.csv

> <i_m_Source_File_Index>
11

> <s_m_job_name>
glide-dock_Nicaido_neutral

> <s_i_glide_gridfile>
3POX-grid

> <i_i_glide_lignum>
15

> <i_i_glide_rotatable_bonds>
9

> <r_i_docking_score>
-3.89243606215271

> <r_i_glide_ligand_efficiency>
-0.108123223948687

> <r_i_glide_ligand_efficiency_sa>
-0.357015018968047

> <r_i_glide_ligand_efficiency_ln>
-0.849224387292228

> <r_i_glide_gscore>
-3.89243606215271

> <r_i_glide_lipo>
-0.170383346273354

> <r_i_glide_hbond>
-0.739185334445616

> <r_i_glide_metal>
0

> <r_i_glide_rewards>
0.00207161319824358

> <r_i_glide_evdw>
-27.6096210479736

> <r_i_glide_ecoul>
-9.58656597137451

> <r_i_glide_erotb>
0.461572583116075

> <r_i_glide_esite>
-0.628045629643204

> <r_i_glide_emodel>
-56.7957737776297

> <r_i_glide_energy>
-37.1961870193481

> <r_i_glide_einternal>
3.67054963111877

> <i_i_glide_confnum>
14

> <i_i_glide_posenum>
176

> <r_i_glide_eff_state_penalty>
0

> <r_glide_res:A132_vdw>
-1.56565199395136

> <r_glide_res:A132_coul>
-25.2908706974482

> <r_glide_res:A132_hbond>
-0.02200630103823

> <r_glide_res:A132_dist>
2.37844263439235

> <r_glide_res:A132_Eint>
-26.8785289924378

> <r_glide_res:A117_vdw>
-2.86605572322079

> <r_glide_res:A117_coul>
12.3101098355491

> <r_glide_res:A117_hbond>
0

> <r_glide_res:A117_dist>
2.32735678645565

> <r_glide_res:A117_Eint>
9.44405411232835

> <r_glide_res:A113_vdw>
-0.579940696820985

> <r_glide_res:A113_coul>
13.0111236092919

> <r_glide_res:A113_hbond>
0

> <r_glide_res:A113_dist>
4.03870728366773

> <r_glide_res:A113_Eint>
12.4311829124709

> <r_glide_res:A82_vdw>
-1.62914132762942

> <r_glide_res:A82_coul>
-23.3489908946449

> <r_glide_res:A82_hbond>
-0.00176148089044087

> <r_glide_res:A82_dist>
2.48618593647558

> <r_glide_res:A82_Eint>
-24.9798937031647

> <r_glide_res:A42_vdw>
-1.92357858602474

> <r_glide_res:A42_coul>
-22.1353692544865

> <r_glide_res:A42_hbond>
-0.17258946927874

> <r_glide_res:A42_dist>
1.86653068544575

> <r_glide_res:A42_Eint>
-24.23153730979

> <r_glide_res:A16_vdw>
0.418524599411593

> <r_glide_res:A16_coul>
-18.9291352489255

> <r_glide_res:A16_hbond>
-0.16

> <r_glide_res:A16_dist>
1.75701291144957

> <r_glide_res:A16_Eint>
-18.6706106495139

> <s_m_source_file>
ligprep_Nicaido_neutral.maegz

> <i_m_source_file_index>
11

> <i_lp_mmshare_version>
58128

> <i_f3d_flags>
0

> <s_lp_Force_Field>
S-OPLS

> <r_lp_Energy>
67.572455

> <b_lp_Chiralities_Consistent>
1

> <s_lp_Variant>
Piperacillin-1

> <s_epik_input>
W0NIM11bQ0gyXU4xW0NIMl1bQ0gyXU4oQyg9TylDMT1PKUMoPU8pW05IXVtDQEhdKGMyW2NIXVtjSF1bY0hdW2NIXVtjSF0yKUMoPU8pW05IXVtDQEBIXTNDKD1PKU4oW0NAQEhdMzQpW0NASF0oQyhTNCkoW0NIM10pW0NIM10pQyg9TylbT0hd

> <s_epik_cmdline>
J2VwaWtfcHl0aG9uJywgJy1waHQnLCAnMC4wJywgJy1waCcsICc3LjQnLCAnLW50JywgJy1tYScsICc1MDAnLCAnLWltYWUnLCAnPGluZmlsZS5tYWU+JywgJy1vbWFlJywgJzxvdXRmaWxlLm1hZT4n

> <r_lp_tautomer_probability>
1

> <r_epik_Ionization_Penalty>
  0.0049

> <r_epik_Ionization_Penalty_Charging>
  0.0000

> <r_epik_Ionization_Penalty_Neutral>
  0.0049

> <r_epik_State_Penalty>
  0.0000

> <r_epik_Charging_Adjusted_Penalty>
1.13204004886318e-05

> <i_epik_Tot_Q>
-1

> <i_epik_Tot_abs_Q>
1

> <s_epik_Chemistry_Notes>
This compound contains an acetal/aminal-like group ( X-CH(R)-Y where X, Y are N, S, or O) that may be acid/base labile, releasing an aldehyde.

> <s_m_subgroup_title>
glide-dock_Nicaido_neutral_pv1

> <s_m_subgroupid>
glide-dock_Nicaido_neutral_pv1

> <b_m_subgroup_collapsed>
0

$$$$
LY097964
                    3D
 Schrodinger Suite 2022-2.
 40 42  0  0  1  0            999 V2000
  -29.5281  -24.7030  -17.8012 C   0  0  0  0  0  0
  -28.5358  -24.2857  -18.7203 O   0  0  0  0  0  0
  -27.6201  -23.4894  -18.0132 N   0  0  0  0  0  0
  -26.8396  -22.7923  -18.7400 C   0  0  0  0  0  0
  -25.8511  -21.8855  -18.0944 C   0  0  0  0  0  0
  -24.9432  -22.3773  -17.1846 C   0  0  0  0  0  0
  -23.8416  -21.1494  -16.6235 S   0  0  0  0  0  0
  -24.7058  -19.9809  -17.6097 C   0  0  0  0  0  0
  -24.3696  -18.6406  -17.6228 N   0  0  0  0  0  0
  -25.6988  -20.5094  -18.3213 N   0  0  0  0  0  0
  -26.7447  -22.8753  -20.2582 C   0  0  0  0  0  0
  -26.4081  -21.7091  -20.8466 N   0  0  0  0  0  0
  -26.0737  -21.3896  -22.2421 C   0  0  1  0  0  0
  -24.5634  -21.1114  -22.3849 C   0  0  1  0  0  0
  -24.5476  -22.0842  -23.4562 N   0  0  0  0  0  0
  -25.8148  -22.5699  -23.2128 C   0  0  0  0  0  0
  -26.4067  -23.5488  -23.6125 O   0  0  0  0  0  0
  -23.3613  -22.4370  -24.1149 C   0  0  0  0  0  0
  -23.3452  -23.8799  -24.7113 C   0  0  0  0  0  0
  -23.9685  -24.0562  -25.7801 O   0  5  0  0  0  0
  -22.7688  -24.7496  -24.0187 O   0  0  0  0  0  0
  -22.3126  -21.5783  -24.2155 C   0  0  0  0  0  0
  -22.3049  -20.1710  -23.6135 C   0  0  0  0  0  0
  -23.9209  -19.5573  -23.0553 S   0  0  0  0  0  0
  -20.9982  -21.9198  -24.9067 C   0  0  0  0  0  0
  -26.9141  -23.9473  -20.8475 O   0  0  0  0  0  0
  -30.3630  -25.1484  -18.3399 H   0  0  0  0  0  0
  -29.1269  -25.4421  -17.1068 H   0  0  0  0  0  0
  -29.9218  -23.8646  -17.2249 H   0  0  0  0  0  0
  -24.8526  -23.3873  -16.8155 H   0  0  0  0  0  0
  -25.0812  -18.0006  -17.9501 H   0  0  0  0  0  0
  -23.7998  -18.2794  -16.8702 H   0  0  0  0  0  0
  -26.3151  -20.9262  -20.2075 H   0  0  0  0  0  0
  -26.6825  -20.5846  -22.6583 H   0  0  0  0  0  0
  -23.9649  -21.4573  -21.5391 H   0  0  0  0  0  0
  -21.6212  -20.1642  -22.7647 H   0  0  0  0  0  0
  -21.9147  -19.4608  -24.3423 H   0  0  0  0  0  0
  -20.1837  -21.9019  -24.1837 H   0  0  0  0  0  0
  -20.9912  -22.8941  -25.3920 H   0  0  0  0  0  0
  -20.7799  -21.1786  -25.6753 H   0  0  0  0  0  0
  1  2  1  0  0  0
  1 27  1  0  0  0
  1 28  1  0  0  0
  1 29  1  0  0  0
  2  3  1  0  0  0
  3  4  2  3  0  0
  4  5  1  0  0  0
  4 11  1  0  0  0
  5 10  1  0  0  0
  5  6  2  0  0  0
  6  7  1  0  0  0
  6 30  1  0  0  0
  7  8  1  0  0  0
  8  9  1  0  0  0
  8 10  2  0  0  0
  9 31  1  0  0  0
  9 32  1  0  0  0
 11 12  1  0  0  0
 11 26  2  0  0  0
 12 13  1  0  0  0
 12 33  1  0  0  0
 13 16  1  0  0  0
 13 14  1  0  0  0
 13 34  1  0  0  0
 14 24  1  0  0  0
 14 15  1  0  0  0
 14 35  1  0  0  0
 15 16  1  0  0  0
 15 18  1  0  0  0
 16 17  2  0  0  0
 18 19  1  0  0  0
 18 22  2  0  0  0
 19 20  1  0  0  0
 19 21  2  0  0  0
 22 23  1  0  0  0
 22 25  1  0  0  0
 23 24  1  0  0  0
 23 36  1  0  0  0
 23 37  1  0  0  0
 25 38  1  0  0  0
 25 39  1  0  0  0
 25 40  1  0  0  0
M  CHG  1  20  -1
M  END
> <s_m_entry_id>
27730

> <s_m_entry_name>
data_maestro.7

> <s_m_Source_Path>
C:\Users\olshana1\Git\GramNeg-Accumulation\Gram Negative Permeation - OmpF

> <s_m_Source_File>
data_maestro.csv

> <i_m_Source_File_Index>
7

> <s_m_job_name>
glide-dock_Nicaido_neutral

> <s_i_glide_gridfile>
3POX-grid

> <i_i_glide_lignum>
10

> <i_i_glide_rotatable_bonds>
6

> <r_i_docking_score>
-3.89168092323093

> <r_i_glide_ligand_efficiency>
-0.149680035508882

> <r_i_glide_ligand_efficiency_sa>
-0.443426516232563

> <r_i_glide_ligand_efficiency_ln>
-0.913948495174136

> <r_i_glide_gscore>
-3.89168092323093

> <r_i_glide_lipo>
0

> <r_i_glide_hbond>
-0.645856475959364

> <r_i_glide_metal>
0

> <r_i_glide_rewards>
-0.692822295543643

> <r_i_glide_evdw>
-27.2841053009033

> <r_i_glide_ecoul>
-8.15762329101563

> <r_i_glide_erotb>
0.622478626066327

> <r_i_glide_esite>
-0.58763201909674

> <r_i_glide_emodel>
-50.9995210946234

> <r_i_glide_energy>
-35.4417285919189

> <r_i_glide_einternal>
6.18025779724121

> <i_i_glide_confnum>
13

> <i_i_glide_posenum>
43

> <r_i_glide_eff_state_penalty>
0

> <r_glide_res:A132_vdw>
-1.95407341320362

> <r_glide_res:A132_coul>
-39.6841420635248

> <r_glide_res:A132_hbond>
-0.241480430949907

> <r_glide_res:A132_dist>
2.02004209161933

> <r_glide_res:A132_Eint>
-41.8796959076783

> <r_glide_res:A117_vdw>
-1.81445644825163

> <r_glide_res:A117_coul>
22.9070234747779

> <r_glide_res:A117_hbond>
0

> <r_glide_res:A117_dist>
3.65223023882183

> <r_glide_res:A117_Eint>
21.0925670265263

> <r_glide_res:A113_vdw>
-1.81173326845068

> <r_glide_res:A113_coul>
16.3908490121771

> <r_glide_res:A113_hbond>
0

> <r_glide_res:A113_dist>
2.46665112416993

> <r_glide_res:A113_Eint>
14.5791157437265

> <r_glide_res:A82_vdw>
1.19088411682513

> <r_glide_res:A82_coul>
-44.1206825622389

> <r_glide_res:A82_hbond>
-0.0957288623092107

> <r_glide_res:A82_dist>
1.88378845588943

> <r_glide_res:A82_Eint>
-43.025527307723

> <r_glide_res:A42_vdw>
-0.349285452487308

> <r_glide_res:A42_coul>
-43.3818179023869

> <r_glide_res:A42_hbond>
-0.108647182700247

> <r_glide_res:A42_dist>
2.05302713034207

> <r_glide_res:A42_Eint>
-43.8397505375744

> <r_glide_res:A16_vdw>
-0.0991008202254656

> <r_glide_res:A16_coul>
-20.129796385254

> <r_glide_res:A16_hbond>
0

> <r_glide_res:A16_dist>
6.41225650892991

> <r_glide_res:A16_Eint>
-20.2288972054794

> <s_m_source_file>
ligprep_Nicaido_neutral.maegz

> <i_m_source_file_index>
7

> <i_lp_mmshare_version>
58128

> <i_f3d_flags>
0

> <s_lp_Force_Field>
S-OPLS

> <r_lp_Energy>
53.916069

> <b_lp_Chiralities_Consistent>
1

> <s_lp_Variant>
LY097964-2

> <s_epik_input>
W05IMl1jKG4xKXNbY0hdYzEvQyg9TlxPW0NIM10pQyg9TylbTkhdW0NAQEhdMkMoPU8pTihbQ0BIXTIzKUMoQyg9TylbT0hdKT1DKFtDSDJdUzMpW0NIM10=

> <s_epik_cmdline>
J2VwaWtfcHl0aG9uJywgJy1waHQnLCAnMC4wJywgJy1waCcsICc3LjQnLCAnLW50JywgJy1tYScsICc1MDAnLCAnLWltYWUnLCAnPGluZmlsZS5tYWU+JywgJy1vbWFlJywgJzxvdXRmaWxlLm1hZT4n

> <r_lp_tautomer_probability>
1

> <r_epik_Ionization_Penalty>
  0.0005

> <r_epik_Ionization_Penalty_Charging>
  0.0000

> <r_epik_Ionization_Penalty_Neutral>
  0.0005

> <r_epik_State_Penalty>
  0.0000

> <r_epik_Charging_Adjusted_Penalty>
1.64985111359435e-05

> <i_epik_Tot_Q>
-1

> <i_epik_Tot_abs_Q>
1

> <s_epik_Chemistry_Notes>
This compound has an imine and may undergo hydrolysis. This compound contains an acetal/aminal-like group ( X-CH(R)-Y where X, Y are N, S, or O) that may be acid/base labile, releasing an aldehyde.

> <s_m_subgroup_title>
glide-dock_Nicaido_neutral_pv1

> <s_m_subgroupid>
glide-dock_Nicaido_neutral_pv1

> <b_m_subgroup_collapsed>
0

$$$$
LY097964
                    3D
 Schrodinger Suite 2022-2.
 40 42  0  0  1  0            999 V2000
  -29.2895  -24.8368  -17.6459 C   0  0  0  0  0  0
  -28.3888  -24.3421  -18.6199 O   0  0  0  0  0  0
  -27.5454  -23.4353  -17.9607 N   0  0  0  0  0  0
  -26.7859  -22.7438  -18.7128 C   0  0  0  0  0  0
  -25.7993  -21.8281  -18.0916 C   0  0  0  0  0  0
  -24.8653  -22.3242  -17.2114 C   0  0  0  0  0  0
  -23.7530  -21.0979  -16.6768 S   0  0  0  0  0  0
  -24.6673  -19.9215  -17.6135 C   0  0  0  0  0  0
  -24.3641  -18.5736  -17.6099 N   0  0  0  0  0  0
  -25.6697  -20.4513  -18.3103 N   0  0  0  0  0  0
  -26.6911  -22.8545  -20.2254 C   0  0  0  0  0  0
  -26.4488  -21.6809  -20.8488 N   0  0  0  0  0  0
  -26.1914  -21.3772  -22.2674 C   0  0  1  0  0  0
  -24.6830  -21.2293  -22.5373 C   0  0  1  0  0  0
  -24.8930  -22.0574  -23.7156 N   0  0  0  0  0  0
  -26.0979  -22.5602  -23.2666 C   0  0  0  0  0  0
  -26.7397  -23.5481  -23.5490 O   0  0  0  0  0  0
  -23.7631  -22.4151  -24.4639 C   0  0  0  0  0  0
  -23.4759  -23.9435  -24.6853 C   0  0  0  0  0  0
  -24.3689  -24.6436  -25.2121 O   0  5  0  0  0  0
  -22.3687  -24.3495  -24.2714 O   0  0  0  0  0  0
  -22.9851  -21.4143  -24.9465 C   0  0  0  0  0  0
  -23.3614  -19.9548  -24.7048 C   0  0  0  0  0  0
  -23.9094  -19.6306  -22.9964 S   0  0  0  0  0  0
  -21.7626  -21.6030  -25.8337 C   0  0  0  0  0  0
  -26.7877  -23.9494  -20.7839 O   0  0  0  0  0  0
  -29.9766  -25.5470  -18.0988 H   0  0  0  0  0  0
  -28.7668  -25.3480  -16.8351 H   0  0  0  0  0  0
  -29.8814  -24.0230  -17.2224 H   0  0  0  0  0  0
  -24.7632  -23.3379  -16.8543 H   0  0  0  0  0  0
  -25.0971  -17.9449  -17.9092 H   0  0  0  0  0  0
  -23.7809  -18.2107  -16.8682 H   0  0  0  0  0  0
  -26.3991  -20.8751  -20.2348 H   0  0  0  0  0  0
  -26.7609  -20.5207  -22.6323 H   0  0  0  0  0  0
  -24.0609  -21.7545  -21.8069 H   0  0  0  0  0  0
  -22.5183  -19.2959  -24.9180 H   0  0  0  0  0  0
  -24.1602  -19.6782  -25.3954 H   0  0  0  0  0  0
  -20.8801  -21.1970  -25.3394 H   0  0  0  0  0  0
  -21.5575  -22.6429  -26.0821 H   0  0  0  0  0  0
  -21.9000  -21.0665  -26.7732 H   0  0  0  0  0  0
  1  2  1  0  0  0
  1 27  1  0  0  0
  1 28  1  0  0  0
  1 29  1  0  0  0
  2  3  1  0  0  0
  3  4  2  3  0  0
  4  5  1  0  0  0
  4 11  1  0  0  0
  5 10  1  0  0  0
  5  6  2  0  0  0
  6  7  1  0  0  0
  6 30  1  0  0  0
  7  8  1  0  0  0
  8  9  1  0  0  0
  8 10  2  0  0  0
  9 31  1  0  0  0
  9 32  1  0  0  0
 11 12  1  0  0  0
 11 26  2  0  0  0
 12 13  1  0  0  0
 12 33  1  0  0  0
 13 16  1  0  0  0
 13 14  1  0  0  0
 13 34  1  0  0  0
 14 24  1  0  0  0
 14 15  1  0  0  0
 14 35  1  0  0  0
 15 16  1  0  0  0
 15 18  1  0  0  0
 16 17  2  0  0  0
 18 19  1  0  0  0
 18 22  2  0  0  0
 19 20  1  0  0  0
 19 21  2  0  0  0
 22 23  1  0  0  0
 22 25  1  0  0  0
 23 24  1  0  0  0
 23 36  1  0  0  0
 23 37  1  0  0  0
 25 38  1  0  0  0
 25 39  1  0  0  0
 25 40  1  0  0  0
M  CHG  1  20  -1
M  END
> <s_m_entry_id>
27731

> <s_m_entry_name>
data_maestro.7

> <s_m_Source_Path>
C:\Users\olshana1\Git\GramNeg-Accumulation\Gram Negative Permeation - OmpF

> <s_m_Source_File>
data_maestro.csv

> <i_m_Source_File_Index>
7

> <s_m_job_name>
glide-dock_Nicaido_neutral

> <s_i_glide_gridfile>
3POX-grid

> <i_i_glide_lignum>
10

> <i_i_glide_rotatable_bonds>
6

> <r_i_docking_score>
-3.89022826551078

> <r_i_glide_ligand_efficiency>
-0.149624164058107

> <r_i_glide_ligand_efficiency_sa>
-0.443260997279486

> <r_i_glide_ligand_efficiency_ln>
-0.913607343275118

> <r_i_glide_gscore>
-3.89022826551078

> <r_i_glide_lipo>
0

> <r_i_glide_hbond>
-0.555933959527812

> <r_i_glide_metal>
0

> <r_i_glide_rewards>
-0.7040692200832

> <r_i_glide_evdw>
-27.6523876190186

> <r_i_glide_ecoul>
-8.50582313537598

> <r_i_glide_erotb>
0.622478626066327

> <r_i_glide_esite>
-0.594210860708773

> <r_i_glide_emodel>
-50.761967180654

> <r_i_glide_energy>
-36.1582107543945

> <r_i_glide_einternal>
8.13864803314209

> <i_i_glide_confnum>
43

> <i_i_glide_posenum>
123

> <r_i_glide_eff_state_penalty>
0

> <r_glide_res:A132_vdw>
-1.93426818452058

> <r_glide_res:A132_coul>
-39.9784746364547

> <r_glide_res:A132_hbond>
-0.225182729516063

> <r_glide_res:A132_dist>
1.96415707404882

> <r_glide_res:A132_Eint>
-42.1379255504914

> <r_glide_res:A117_vdw>
-2.13836800688799

> <r_glide_res:A117_coul>
20.0823705066217

> <r_glide_res:A117_hbond>
0

> <r_glide_res:A117_dist>
2.89865155535358

> <r_glide_res:A117_Eint>
17.9440024997337

> <r_glide_res:A113_vdw>
-1.72696149751555

> <r_glide_res:A113_coul>
16.6451872450675

> <r_glide_res:A113_hbond>
0

> <r_glide_res:A113_dist>
2.61023988957566

> <r_glide_res:A113_Eint>
14.918225747552

> <r_glide_res:A82_vdw>
2.05762947310145

> <r_glide_res:A82_coul>
-47.4029428481625

> <r_glide_res:A82_hbond>
-0.127568780247545

> <r_glide_res:A82_dist>
1.77424785371684

> <r_glide_res:A82_Eint>
-45.4728821553086

> <r_glide_res:A42_vdw>
-1.21325444126384

> <r_glide_res:A42_coul>
-39.1494232685173

> <r_glide_res:A42_hbond>
-0.00848530029887158

> <r_glide_res:A42_dist>
2.39186410933574

> <r_glide_res:A42_Eint>
-40.37116301008

> <r_glide_res:A16_vdw>
-0.113668798056297

> <r_glide_res:A16_coul>
-19.2532099840035

> <r_glide_res:A16_hbond>
0

> <r_glide_res:A16_dist>
6.26201676830151

> <r_glide_res:A16_Eint>
-19.3668787820598

> <s_m_source_file>
ligprep_Nicaido_neutral.maegz

> <i_m_source_file_index>
7

> <i_lp_mmshare_version>
58128

> <i_f3d_flags>
0

> <s_lp_Force_Field>
S-OPLS

> <r_lp_Energy>
53.916069

> <b_lp_Chiralities_Consistent>
1

> <s_lp_Variant>
LY097964-2

> <s_epik_input>
W05IMl1jKG4xKXNbY0hdYzEvQyg9TlxPW0NIM10pQyg9TylbTkhdW0NAQEhdMkMoPU8pTihbQ0BIXTIzKUMoQyg9TylbT0hdKT1DKFtDSDJdUzMpW0NIM10=

> <s_epik_cmdline>
J2VwaWtfcHl0aG9uJywgJy1waHQnLCAnMC4wJywgJy1waCcsICc3LjQnLCAnLW50JywgJy1tYScsICc1MDAnLCAnLWltYWUnLCAnPGluZmlsZS5tYWU+JywgJy1vbWFlJywgJzxvdXRmaWxlLm1hZT4n

> <r_lp_tautomer_probability>
1

> <r_epik_Ionization_Penalty>
  0.0005

> <r_epik_Ionization_Penalty_Charging>
  0.0000

> <r_epik_Ionization_Penalty_Neutral>
  0.0005

> <r_epik_State_Penalty>
  0.0000

> <r_epik_Charging_Adjusted_Penalty>
1.64985111359435e-05

> <i_epik_Tot_Q>
-1

> <i_epik_Tot_abs_Q>
1

> <s_epik_Chemistry_Notes>
This compound has an imine and may undergo hydrolysis. This compound contains an acetal/aminal-like group ( X-CH(R)-Y where X, Y are N, S, or O) that may be acid/base labile, releasing an aldehyde.

> <s_m_subgroup_title>
glide-dock_Nicaido_neutral_pv1

> <s_m_subgroupid>
glide-dock_Nicaido_neutral_pv1

> <b_m_subgroup_collapsed>
0

$$$$
Cefotaxime
                    3D
 Schrodinger Suite 2022-2.
 46 48  0  0  1  0            999 V2000
  -32.1350  -16.7948  -27.1017 C   0  0  0  0  0  0
  -31.7391  -18.2168  -26.7290 C   0  0  0  0  0  0
  -32.6043  -18.7833  -25.8670 O   0  0  0  0  0  0
  -32.3581  -20.0731  -25.3107 C   0  0  0  0  0  0
  -31.3163  -20.0396  -24.1895 C   0  0  0  0  0  0
  -30.2207  -20.8522  -24.1260 C   0  0  0  0  0  0
  -29.3245  -20.7979  -23.0380 N   0  0  0  0  0  0
  -29.6724  -20.2293  -21.7447 C   0  0  1  0  0  0
  -28.2042  -20.4451  -21.3440 C   0  0  2  0  0  0
  -28.1198  -21.3308  -22.6095 C   0  0  0  0  0  0
  -27.3741  -22.1772  -23.0586 O   0  0  0  0  0  0
  -28.0593  -21.2394  -20.1309 N   0  0  0  0  0  0
  -26.8599  -21.6161  -19.6619 C   0  0  0  0  0  0
  -26.9058  -22.8594  -18.7995 C   0  0  0  0  0  0
  -25.6220  -23.1278  -18.0945 C   0  0  0  0  0  0
  -25.1291  -22.2472  -17.1573 C   0  0  0  0  0  0
  -23.5919  -22.7500  -16.5207 S   0  0  0  0  0  0
  -23.6732  -24.1587  -17.5708 C   0  0  0  0  0  0
  -22.6501  -25.0897  -17.6138 N   0  0  0  0  0  0
  -24.7725  -24.2234  -18.3205 N   0  0  0  0  0  0
  -27.9308  -23.6207  -18.7764 N   0  0  0  0  0  0
  -27.7392  -24.7781  -18.0134 O   0  0  0  0  0  0
  -29.0140  -25.2533  -17.6273 C   0  0  0  0  0  0
  -25.7998  -21.0822  -19.9932 O   0  0  0  0  0  0
  -30.3246  -18.5625  -22.0133 S   0  0  0  0  0  0
  -31.6845  -19.0242  -23.1028 C   0  0  0  0  0  0
  -29.8898  -21.9494  -25.2134 C   0  0  0  0  0  0
  -29.5690  -23.0940  -24.8134 O   0  5  0  0  0  0
  -29.9691  -21.6135  -26.4134 O   0  0  0  0  0  0
  -30.7411  -18.7486  -27.2132 O   0  0  0  0  0  0
  -32.3865  -16.2242  -26.2068 H   0  0  0  0  0  0
  -31.3084  -16.2907  -27.6047 H   0  0  0  0  0  0
  -32.9978  -16.8008  -27.7682 H   0  0  0  0  0  0
  -32.1282  -20.7804  -26.1035 H   0  0  0  0  0  0
  -33.2938  -20.4209  -24.8722 H   0  0  0  0  0  0
  -30.3855  -20.8584  -21.2059 H   0  0  0  0  0  0
  -27.6148  -19.5259  -21.3677 H   0  0  0  0  0  0
  -28.8954  -21.6590  -19.7414 H   0  0  0  0  0  0
  -25.5691  -21.3225  -16.8136 H   0  0  0  0  0  0
  -22.5893  -25.6025  -18.4804 H   0  0  0  0  0  0
  -21.7528  -24.7568  -17.2916 H   0  0  0  0  0  0
  -28.9031  -26.1240  -16.9809 H   0  0  0  0  0  0
  -29.5689  -24.4936  -17.0751 H   0  0  0  0  0  0
  -29.5980  -25.5470  -18.4978 H   0  0  0  0  0  0
  -32.0588  -18.0978  -23.5371 H   0  0  0  0  0  0
  -32.4909  -19.4392  -22.4985 H   0  0  0  0  0  0
  1  2  1  0  0  0
  1 31  1  0  0  0
  1 32  1  0  0  0
  1 33  1  0  0  0
  2  3  1  0  0  0
  2 30  2  0  0  0
  3  4  1  0  0  0
  4  5  1  0  0  0
  4 34  1  0  0  0
  4 35  1  0  0  0
  5 26  1  0  0  0
  5  6  2  0  0  0
  6  7  1  0  0  0
  6 27  1  0  0  0
  7 10  1  0  0  0
  7  8  1  0  0  0
  8  9  1  0  0  0
  8 25  1  0  0  0
  8 36  1  0  0  0
  9 10  1  0  0  0
  9 12  1  0  0  0
  9 37  1  0  0  0
 10 11  2  0  0  0
 12 13  1  0  0  0
 12 38  1  0  0  0
 13 14  1  0  0  0
 13 24  2  0  0  0
 14 15  1  0  0  0
 14 21  2  3  0  0
 15 20  1  0  0  0
 15 16  2  0  0  0
 16 17  1  0  0  0
 16 39  1  0  0  0
 17 18  1  0  0  0
 18 19  1  0  0  0
 18 20  2  0  0  0
 19 40  1  0  0  0
 19 41  1  0  0  0
 21 22  1  0  0  0
 22 23  1  0  0  0
 23 42  1  0  0  0
 23 43  1  0  0  0
 23 44  1  0  0  0
 25 26  1  0  0  0
 26 45  1  0  0  0
 26 46  1  0  0  0
 27 28  1  0  0  0
 27 29  2  0  0  0
M  CHG  1  28  -1
M  END
> <s_m_entry_id>
27732

> <s_m_entry_name>
data_maestro.6

> <s_m_Source_Path>
C:\Users\olshana1\Git\GramNeg-Accumulation\Gram Negative Permeation - OmpF

> <s_m_Source_File>
data_maestro.csv

> <i_m_Source_File_Index>
6

> <s_m_job_name>
glide-dock_Nicaido_neutral

> <s_i_glide_gridfile>
3POX-grid

> <i_i_glide_lignum>
7

> <i_i_glide_rotatable_bonds>
9

> <r_i_docking_score>
-3.87633047025009

> <r_i_glide_ligand_efficiency>
-0.129211015675003

> <r_i_glide_ligand_efficiency_sa>
-0.401488667577502

> <r_i_glide_ligand_efficiency_ln>
-0.880744518844132

> <r_i_glide_gscore>
-3.87633047025009

> <r_i_glide_lipo>
0

> <r_i_glide_hbond>
-0.460497379642258

> <r_i_glide_metal>
0

> <r_i_glide_rewards>
-0.200160217384784

> <r_i_glide_evdw>
-37.4377365112305

> <r_i_glide_ecoul>
-8.38488960266113

> <r_i_glide_erotb>
0.680611118548691

> <r_i_glide_esite>
-0.766663725811046

> <r_i_glide_emodel>
-64.3085376978428

> <r_i_glide_energy>
-45.8226261138916

> <r_i_glide_einternal>
4.24939155578613

> <i_i_glide_confnum>
49

> <i_i_glide_posenum>
382

> <r_i_glide_eff_state_penalty>
0

> <r_glide_res:A132_vdw>
-2.60765323786966

> <r_glide_res:A132_coul>
-28.01339227634

> <r_glide_res:A132_hbond>
0

> <r_glide_res:A132_dist>
2.4275029669434

> <r_glide_res:A132_Eint>
-30.6210455142097

> <r_glide_res:A117_vdw>
-2.97602992541717

> <r_glide_res:A117_coul>
27.3931544593352

> <r_glide_res:A117_hbond>
0

> <r_glide_res:A117_dist>
3.04187342178855

> <r_glide_res:A117_Eint>
24.4171245339181

> <r_glide_res:A113_vdw>
-4.11841323323577

> <r_glide_res:A113_coul>
12.5762814560246

> <r_glide_res:A113_hbond>
0

> <r_glide_res:A113_dist>
2.77645905059348

> <r_glide_res:A113_Eint>
8.45786822278878

> <r_glide_res:A82_vdw>
-1.49052317386665

> <r_glide_res:A82_coul>
-37.1606143029282

> <r_glide_res:A82_hbond>
0

> <r_glide_res:A82_dist>
2.87732776704046

> <r_glide_res:A82_Eint>
-38.6511374767949

> <r_glide_res:A42_vdw>
-0.899277854859636

> <r_glide_res:A42_coul>
-49.3989802841961

> <r_glide_res:A42_hbond>
-0.260497379642258

> <r_glide_res:A42_dist>
1.93098958434673

> <r_glide_res:A42_Eint>
-50.558755518698

> <r_glide_res:A16_vdw>
0.392583005145429

> <r_glide_res:A16_coul>
-52.4300105411791

> <r_glide_res:A16_hbond>
-0.2

> <r_glide_res:A16_dist>
1.79461528097916

> <r_glide_res:A16_Eint>
-52.2374275360336

> <s_m_source_file>
ligprep_Nicaido_neutral.maegz

> <i_m_source_file_index>
6

> <i_lp_mmshare_version>
58128

> <i_f3d_flags>
0

> <s_lp_Force_Field>
S-OPLS

> <r_lp_Energy>
53.728996

> <b_lp_Chiralities_Consistent>
1

> <s_lp_Variant>
Cefotaxime-1

> <s_epik_input>
W0NIM11DKD1PKU9bQ0gyXUMoPUMxQyg9TylbT0hdKVtDSDJdU1tDQEBIXShOMTIpW0NASF0oQzI9TylbTkhdQyg9TykvQyg9Ti9PW0NIM10pYzNbY0hdc2MobjMpW05IMl0=

> <s_epik_cmdline>
J2VwaWtfcHl0aG9uJywgJy1waHQnLCAnMC4wJywgJy1waCcsICc3LjQnLCAnLW50JywgJy1tYScsICc1MDAnLCAnLWltYWUnLCAnPGluZmlsZS5tYWU+JywgJy1vbWFlJywgJzxvdXRmaWxlLm1hZT4n

> <r_lp_tautomer_probability>
1

> <r_epik_Ionization_Penalty>
  0.0004

> <r_epik_Ionization_Penalty_Charging>
  0.0000

> <r_epik_Ionization_Penalty_Neutral>
  0.0004

> <r_epik_State_Penalty>
  0.0000

> <r_epik_Charging_Adjusted_Penalty>
5.45682606121274e-06

> <i_epik_Tot_Q>
-1

> <i_epik_Tot_abs_Q>
1

> <s_epik_Chemistry_Notes>
This compound has an ester and may undergo hydrolysis at high or low pH. This compound has an imine and may undergo hydrolysis. This compound contains an acetal/aminal-like group ( X-CH(R)-Y where X, Y are N, S, or O) that may be acid/base labile, releasing an aldehyde.

> <s_m_subgroup_title>
glide-dock_Nicaido_neutral_pv1

> <s_m_subgroupid>
glide-dock_Nicaido_neutral_pv1

> <b_m_subgroup_collapsed>
0

$$$$
Cefuroxime
                    3D
 Schrodinger Suite 2022-2.
 44 46  0  0  1  0            999 V2000
  -24.5595  -22.6326  -16.8517 C   0  0  0  0  0  0
  -25.3275  -23.5484  -17.6127 O   0  0  0  0  0  0
  -25.9307  -22.8374  -18.6565 N   0  0  0  0  0  0
  -27.1124  -23.2317  -18.9239 C   0  0  0  0  0  0
  -27.8215  -24.3345  -18.2544 C   0  0  0  0  0  0
  -29.0277  -24.4987  -17.6211 C   0  0  0  0  0  0
  -29.1086  -25.8605  -17.2142 C   0  0  0  0  0  0
  -27.9396  -26.4351  -17.6134 C   0  0  0  0  0  0
  -27.1590  -25.5317  -18.2688 O   0  0  0  0  0  0
  -27.8253  -22.6262  -20.1094 C   0  0  0  0  0  0
  -29.1689  -22.5916  -20.0135 N   0  0  0  0  0  0
  -30.1642  -22.2849  -21.0477 C   0  0  1  0  0  0
  -30.0206  -20.8942  -21.6878 C   0  0  1  0  0  0
  -29.9034  -21.5714  -22.9679 N   0  0  0  0  0  0
  -29.8290  -22.8540  -22.4419 C   0  0  0  0  0  0
  -29.5622  -23.9471  -22.9012 O   0  0  0  0  0  0
  -29.7167  -20.8500  -24.1609 C   0  0  0  0  0  0
  -29.0388  -21.6364  -25.3356 C   0  0  0  0  0  0
  -28.0482  -22.3494  -25.0559 O   0  5  0  0  0  0
  -29.5694  -21.5496  -26.4651 O   0  0  0  0  0  0
  -30.0604  -19.5360  -24.2607 C   0  0  0  0  0  0
  -30.7130  -18.7253  -23.1421 C   0  0  0  0  0  0
  -31.4198  -19.7429  -21.8291 S   0  0  0  0  0  0
  -29.8000  -18.6921  -25.4903 C   0  0  0  0  0  0
  -30.9256  -18.7382  -26.3648 O   0  0  0  0  0  0
  -30.9699  -18.0838  -27.5452 C   0  0  0  0  0  0
  -29.9685  -17.1496  -27.6632 N   0  0  0  0  0  0
  -31.8023  -18.3356  -28.4141 O   0  0  0  0  0  0
  -27.1904  -22.2591  -21.0997 O   0  0  0  0  0  0
  -24.0916  -23.1506  -16.0144 H   0  0  0  0  0  0
  -23.7706  -22.1779  -17.4513 H   0  0  0  0  0  0
  -25.1857  -21.8395  -16.4375 H   0  0  0  0  0  0
  -29.7639  -23.7245  -17.4561 H   0  0  0  0  0  0
  -29.9105  -26.3485  -16.6788 H   0  0  0  0  0  0
  -27.5181  -27.4247  -17.5307 H   0  0  0  0  0  0
  -29.5967  -22.7494  -19.1071 H   0  0  0  0  0  0
  -31.1879  -22.4747  -20.7218 H   0  0  0  0  0  0
  -29.1013  -20.3656  -21.4246 H   0  0  0  0  0  0
  -29.9666  -18.0554  -22.7108 H   0  0  0  0  0  0
  -31.5078  -18.0995  -23.5480 H   0  0  0  0  0  0
  -29.5947  -17.6669  -25.1749 H   0  0  0  0  0  0
  -28.9115  -19.0458  -26.0135 H   0  0  0  0  0  0
  -29.3765  -16.9520  -26.8683 H   0  0  0  0  0  0
  -29.8871  -16.6163  -28.5150 H   0  0  0  0  0  0
  1  2  1  0  0  0
  1 30  1  0  0  0
  1 31  1  0  0  0
  1 32  1  0  0  0
  2  3  1  0  0  0
  3  4  2  3  0  0
  4  5  1  0  0  0
  4 10  1  0  0  0
  5  9  1  0  0  0
  5  6  2  0  0  0
  6  7  1  0  0  0
  6 33  1  0  0  0
  7  8  2  0  0  0
  7 34  1  0  0  0
  8  9  1  0  0  0
  8 35  1  0  0  0
 10 11  1  0  0  0
 10 29  2  0  0  0
 11 12  1  0  0  0
 11 36  1  0  0  0
 12 15  1  0  0  0
 12 13  1  0  0  0
 12 37  1  0  0  0
 13 23  1  0  0  0
 13 14  1  0  0  0
 13 38  1  0  0  0
 14 15  1  0  0  0
 14 17  1  0  0  0
 15 16  2  0  0  0
 17 18  1  0  0  0
 17 21  2  0  0  0
 18 19  1  0  0  0
 18 20  2  0  0  0
 21 22  1  0  0  0
 21 24  1  0  0  0
 22 23  1  0  0  0
 22 39  1  0  0  0
 22 40  1  0  0  0
 24 25  1  0  0  0
 24 41  1  0  0  0
 24 42  1  0  0  0
 25 26  1  0  0  0
 26 27  1  0  0  0
 26 28  2  0  0  0
 27 43  1  0  0  0
 27 44  1  0  0  0
M  CHG  1  19  -1
M  END
> <s_m_entry_id>
27733

> <s_m_entry_name>
data_maestro.10

> <s_m_Source_Path>
C:\Users\olshana1\Git\GramNeg-Accumulation\Gram Negative Permeation - OmpF

> <s_m_Source_File>
data_maestro.csv

> <i_m_Source_File_Index>
10

> <s_m_job_name>
glide-dock_Nicaido_neutral

> <s_i_glide_gridfile>
3POX-grid

> <i_i_glide_lignum>
13

> <i_i_glide_rotatable_bonds>
9

> <r_i_docking_score>
-3.87251449739406

> <r_i_glide_ligand_efficiency>
-0.133534982668761

> <r_i_glide_ligand_efficiency_sa>
-0.41026177361041

> <r_i_glide_ligand_efficiency_ln>
-0.886707621408383

> <r_i_glide_gscore>
-3.87251449739406

> <r_i_glide_lipo>
-0.0232295448297887

> <r_i_glide_hbond>
-0.902282584170521

> <r_i_glide_metal>
0

> <r_i_glide_rewards>
0.765457591403035

> <r_i_glide_evdw>
-30.2322769165039

> <r_i_glide_ecoul>
-13.6208162307739

> <r_i_glide_erotb>
0.663396273735242

> <r_i_glide_esite>
-0.821119953090741

> <r_i_glide_emodel>
-54.4424502359416

> <r_i_glide_energy>
-43.8530931472778

> <r_i_glide_einternal>
13.9323778152466

> <i_i_glide_confnum>
35

> <i_i_glide_posenum>
78

> <r_i_glide_eff_state_penalty>
0

> <r_glide_res:A132_vdw>
-3.49697119837336

> <r_glide_res:A132_coul>
-24.4641363623017

> <r_glide_res:A132_hbond>
-0.00106018147159288

> <r_glide_res:A132_dist>
1.82744014062317

> <r_glide_res:A132_Eint>
-27.9621677421467

> <r_glide_res:A117_vdw>
-3.26314101968984

> <r_glide_res:A117_coul>
20.2374740420009

> <r_glide_res:A117_hbond>
0

> <r_glide_res:A117_dist>
2.2687512838689

> <r_glide_res:A117_Eint>
16.9743330223111

> <r_glide_res:A113_vdw>
-3.20692155394405

> <r_glide_res:A113_coul>
7.97628983780214

> <r_glide_res:A113_hbond>
-0.110311338609492

> <r_glide_res:A113_dist>
2.05113798189596

> <r_glide_res:A113_Eint>
4.65905694524859

> <r_glide_res:A82_vdw>
-0.691962986988457

> <r_glide_res:A82_coul>
-41.1970778333215

> <r_glide_res:A82_hbond>
-0.16

> <r_glide_res:A82_dist>
1.83971407524471

> <r_glide_res:A82_Eint>
-42.04904082031

> <r_glide_res:A42_vdw>
1.09344131847334

> <r_glide_res:A42_coul>
-55.0002387951526

> <r_glide_res:A42_hbond>
-0.365903676408771

> <r_glide_res:A42_dist>
1.75477718860818

> <r_glide_res:A42_Eint>
-54.2727011530881

> <r_glide_res:A16_vdw>
-0.241422707244569

> <r_glide_res:A16_coul>
-55.2768341502617

> <r_glide_res:A16_hbond>
-0.215163253024524

> <r_glide_res:A16_dist>
1.84704987010226

> <r_glide_res:A16_Eint>
-55.7334201105308

> <s_m_source_file>
ligprep_Nicaido_neutral.maegz

> <i_m_source_file_index>
10

> <i_lp_mmshare_version>
58128

> <i_f3d_flags>
0

> <s_lp_Force_Field>
S-OPLS

> <r_lp_Energy>
41.721283

> <b_lp_Chiralities_Consistent>
1

> <s_lp_Variant>
Cefuroxime-1

> <s_epik_input>
bzFbY0hdW2NIXVtjSF1jMS9DKD1OXE9bQ0gzXSlDKD1PKVtOSF1bQ0BASF0yQyg9TylOKFtDQEhdMjMpQyhDKD1PKVtPSF0pPUMoW0NIMl1TMylbQ0gyXU9DKD1PKVtOSDJd

> <s_epik_cmdline>
J2VwaWtfcHl0aG9uJywgJy1waHQnLCAnMC4wJywgJy1waCcsICc3LjQnLCAnLW50JywgJy1tYScsICc1MDAnLCAnLWltYWUnLCAnPGluZmlsZS5tYWU+JywgJy1vbWFlJywgJzxvdXRmaWxlLm1hZT4n

> <r_lp_tautomer_probability>
1

> <r_epik_Ionization_Penalty>
  0.0000

> <r_epik_Ionization_Penalty_Charging>
  0.0000

> <r_epik_Ionization_Penalty_Neutral>
  0.0000

> <r_epik_State_Penalty>
  0.0000

> <r_epik_Charging_Adjusted_Penalty>
8.57368987839538e-06

> <i_epik_Tot_Q>
-1

> <i_epik_Tot_abs_Q>
1

> <s_epik_Chemistry_Notes>
This compound has an ester and may undergo hydrolysis at high or low pH. This compound has an imine and may undergo hydrolysis. This compound contains an acetal/aminal-like group ( X-CH(R)-Y where X, Y are N, S, or O) that may be acid/base labile, releasing an aldehyde.

> <s_m_subgroup_title>
glide-dock_Nicaido_neutral_pv1

> <s_m_subgroupid>
glide-dock_Nicaido_neutral_pv1

> <b_m_subgroup_collapsed>
0

$$$$
Nalidixic acid
                    3D
 Schrodinger Suite 2022-2.
 28 29  0  0  1  0            999 V2000
  -26.9876  -20.3495  -18.8883 C   0  0  0  0  0  0
  -26.1824  -21.4855  -19.5276 C   0  0  0  0  0  0
  -26.2717  -21.4663  -20.9895 N   0  0  0  0  0  0
  -27.2336  -22.2128  -21.6525 C   0  0  0  0  0  0
  -27.4485  -22.2246  -22.9884 C   0  0  0  0  0  0
  -26.5775  -21.3483  -23.8291 C   0  0  0  0  0  0
  -25.5407  -20.5460  -23.1169 C   0  0  0  0  0  0
  -25.4076  -20.6122  -21.7067 C   0  0  0  0  0  0
  -24.4632  -19.9099  -21.0342 N   0  0  0  0  0  0
  -23.6297  -19.1122  -21.7313 C   0  0  0  0  0  0
  -23.6766  -18.9928  -23.1317 C   0  0  0  0  0  0
  -24.6613  -19.7078  -23.8348 C   0  0  0  0  0  0
  -22.6186  -18.3358  -20.9162 C   0  0  0  0  0  0
  -26.6707  -21.3070  -25.0584 O   0  0  0  0  0  0
  -28.5765  -23.1495  -23.5791 C   0  0  0  0  0  0
  -28.7733  -23.1314  -24.8134 O   0  5  0  0  0  0
  -29.1064  -23.9520  -22.7779 O   0  0  0  0  0  0
  -26.9201  -20.3801  -17.8000 H   0  0  0  0  0  0
  -26.6258  -19.3736  -19.2139 H   0  0  0  0  0  0
  -28.0437  -20.4135  -19.1536 H   0  0  0  0  0  0
  -26.5630  -22.4381  -19.1589 H   0  0  0  0  0  0
  -25.1441  -21.4448  -19.1997 H   0  0  0  0  0  0
  -27.8379  -22.8092  -20.9840 H   0  0  0  0  0  0
  -22.9928  -18.3496  -23.6650 H   0  0  0  0  0  0
  -24.7280  -19.6105  -24.9093 H   0  0  0  0  0  0
  -21.9341  -17.7781  -21.5607 H   0  0  0  0  0  0
  -23.1312  -17.6254  -20.2635 H   0  0  0  0  0  0
  -22.0308  -19.0127  -20.2940 H   0  0  0  0  0  0
  1  2  1  0  0  0
  1 18  1  0  0  0
  1 19  1  0  0  0
  1 20  1  0  0  0
  2  3  1  0  0  0
  2 21  1  0  0  0
  2 22  1  0  0  0
  3  8  1  0  0  0
  3  4  1  0  0  0
  4  5  2  0  0  0
  4 23  1  0  0  0
  5  6  1  0  0  0
  5 15  1  0  0  0
  6  7  1  0  0  0
  6 14  2  0  0  0
  7 12  2  0  0  0
  7  8  1  0  0  0
  8  9  2  0  0  0
  9 10  1  0  0  0
 10 11  2  0  0  0
 10 13  1  0  0  0
 11 12  1  0  0  0
 11 24  1  0  0  0
 12 25  1  0  0  0
 13 26  1  0  0  0
 13 27  1  0  0  0
 13 28  1  0  0  0
 15 16  1  0  0  0
 15 17  2  0  0  0
M  CHG  1  16  -1
M  END
> <s_m_entry_id>
27734

> <s_m_entry_name>
data_maestro.31

> <s_m_Source_Path>
C:\Users\olshana1\Git\GramNeg-Accumulation\Gram Negative Permeation - OmpF

> <s_m_Source_File>
data_maestro.csv

> <i_m_Source_File_Index>
31

> <s_m_job_name>
glide-dock_Nicaido_neutral

> <s_i_glide_gridfile>
3POX-grid

> <i_i_glide_lignum>
40

> <i_i_glide_rotatable_bonds>
2

> <r_i_docking_score>
-3.86795456331339

> <r_i_glide_ligand_efficiency>
-0.227526739018435

> <r_i_glide_ligand_efficiency_sa>
-0.585035314868092

> <r_i_glide_ligand_efficiency_ln>
-1.00906321045528

> <r_i_glide_gscore>
-3.86795456331339

> <r_i_glide_lipo>
-0.0117200461216995

> <r_i_glide_hbond>
-0.595520377538136

> <r_i_glide_metal>
0

> <r_i_glide_rewards>
-1.83254086363636

> <r_i_glide_evdw>
-12.6625452041626

> <r_i_glide_ecoul>
-4.12047433853149

> <r_i_glide_erotb>
0

> <r_i_glide_esite>
-0.176974865029334

> <r_i_glide_emodel>
-28.3600181659389

> <r_i_glide_energy>
-16.7830195426941

> <r_i_glide_einternal>
0.366295754909515

> <i_i_glide_confnum>
1

> <i_i_glide_posenum>
290

> <r_i_glide_eff_state_penalty>
0

> <r_glide_res:A132_vdw>
-1.14636530218924

> <r_glide_res:A132_coul>
-31.5007504329268

> <r_glide_res:A132_hbond>
0

> <r_glide_res:A132_dist>
2.95580741029721

> <r_glide_res:A132_Eint>
-32.647115735116

> <r_glide_res:A117_vdw>
-2.66234098281314

> <r_glide_res:A117_coul>
23.0001458995969

> <r_glide_res:A117_hbond>
0

> <r_glide_res:A117_dist>
2.81705611364852

> <r_glide_res:A117_Eint>
20.3378049167837

> <r_glide_res:A113_vdw>
-0.954267083251431

> <r_glide_res:A113_coul>
25.7597337044321

> <r_glide_res:A113_hbond>
0

> <r_glide_res:A113_dist>
2.93545889921044

> <r_glide_res:A113_Eint>
24.8054666211807

> <r_glide_res:A82_vdw>
-0.502923096406816

> <r_glide_res:A82_coul>
-46.3815124453516

> <r_glide_res:A82_hbond>
-0.207649446397973

> <r_glide_res:A82_dist>
1.91734041354436

> <r_glide_res:A82_Eint>
-47.0920849881564

> <r_glide_res:A42_vdw>
0.49684036443607

> <r_glide_res:A42_coul>
-50.1025060987571

> <r_glide_res:A42_hbond>
-0.387870931140163

> <r_glide_res:A42_dist>
1.85173870382206

> <r_glide_res:A42_Eint>
-49.9935366654612

> <r_glide_res:A16_vdw>
-0.249576735691265

> <r_glide_res:A16_coul>
-29.8524963910695

> <r_glide_res:A16_hbond>
0

> <r_glide_res:A16_dist>
4.13794076770248

> <r_glide_res:A16_Eint>
-30.1020731267608

> <s_m_source_file>
ligprep_Nicaido_neutral.maegz

> <i_m_source_file_index>
31

> <i_lp_mmshare_version>
58128

> <i_f3d_flags>
0

> <s_lp_Force_Field>
S-OPLS

> <r_lp_Energy>
25.048869

> <b_lp_Chiralities_Consistent>
1

> <s_lp_Variant>
Nalidixic acid-1

> <s_epik_input>
Tz1jMWMoQyg9TylbT0hdKVtjSF1uKFtDSDJdW0NIM10pYyhjMTIpbmMoW0NIM10pW2NIXVtjSF0y

> <s_epik_cmdline>
J2VwaWtfcHl0aG9uJywgJy1waHQnLCAnMC4wJywgJy1waCcsICc3LjQnLCAnLW50JywgJy1tYScsICc1MDAnLCAnLWltYWUnLCAnPGluZmlsZS5tYWU+JywgJy1vbWFlJywgJzxvdXRmaWxlLm1hZT4n

> <r_lp_tautomer_probability>
1

> <r_epik_Ionization_Penalty>
  0.0215

> <r_epik_Ionization_Penalty_Charging>
  0.0215

> <r_epik_Ionization_Penalty_Neutral>
  0.0000

> <r_epik_State_Penalty>
  0.0000

> <r_epik_Charging_Adjusted_Penalty>
0.0214516940307923

> <i_epik_Tot_Q>
-1

> <i_epik_Tot_abs_Q>
1

> <s_m_subgroup_title>
glide-dock_Nicaido_neutral_pv1

> <s_m_subgroupid>
glide-dock_Nicaido_neutral_pv1

> <b_m_subgroup_collapsed>
0

$$$$
Cephalothin
                    3D
 Schrodinger Suite 2022-2.
 41 43  0  0  1  0            999 V2000
  -30.1193  -24.3465  -19.4348 C   0  0  0  0  0  0
  -30.3668  -23.9508  -20.8857 C   0  0  0  0  0  0
  -31.4424  -23.1636  -21.0217 O   0  0  0  0  0  0
  -31.8286  -22.6623  -22.2929 C   0  0  0  0  0  0
  -30.9821  -21.4771  -22.7566 C   0  0  0  0  0  0
  -30.4513  -21.3970  -24.0052 C   0  0  0  0  0  0
  -29.7005  -20.2938  -24.4058 N   0  0  0  0  0  0
  -28.8451  -19.6125  -23.4615 C   0  0  1  0  0  0
  -28.2545  -18.8499  -24.6643 C   0  0  2  0  0  0
  -29.2526  -19.6393  -25.5366 C   0  0  0  0  0  0
  -29.5681  -19.7087  -26.7054 O   0  0  0  0  0  0
  -26.8315  -19.1231  -24.9261 N   0  0  0  0  0  0
  -26.1897  -20.2878  -25.1143 C   0  0  0  0  0  0
  -24.6863  -20.1800  -25.3685 C   0  0  0  0  0  0
  -23.9214  -20.4231  -24.1069 C   0  0  0  0  0  0
  -23.3259  -21.5887  -23.6924 C   0  0  0  0  0  0
  -22.6772  -21.4670  -22.4277 C   0  0  0  0  0  0
  -22.7842  -20.2097  -21.8951 C   0  0  0  0  0  0
  -23.6968  -19.1484  -22.9325 S   0  0  0  0  0  0
  -26.7327  -21.3951  -25.0913 O   0  0  0  0  0  0
  -29.9680  -18.8639  -22.2452 S   0  0  0  0  0  0
  -30.7936  -20.3917  -21.6840 C   0  0  0  0  0  0
  -30.5735  -22.5171  -25.0766 C   0  0  0  0  0  0
  -29.9196  -23.5494  -24.8152 O   0  5  0  0  0  0
  -31.1365  -22.2395  -26.1600 O   0  0  0  0  0  0
  -29.6270  -24.3414  -21.7919 O   0  0  0  0  0  0
  -31.0652  -24.4651  -18.9109 H   0  0  0  0  0  0
  -29.5729  -25.2802  -19.3467 H   0  0  0  0  0  0
  -29.5567  -23.5514  -18.9375 H   0  0  0  0  0  0
  -32.8573  -22.3136  -22.2027 H   0  0  0  0  0  0
  -31.8468  -23.4736  -23.0202 H   0  0  0  0  0  0
  -28.1467  -20.2991  -22.9795 H   0  0  0  0  0  0
  -28.4839  -17.7929  -24.6119 H   0  0  0  0  0  0
  -26.2532  -18.2901  -24.9953 H   0  0  0  0  0  0
  -24.4438  -19.1926  -25.7691 H   0  0  0  0  0  0
  -24.3992  -20.9028  -26.1329 H   0  0  0  0  0  0
  -23.3369  -22.5139  -24.2468 H   0  0  0  0  0  0
  -22.1616  -22.2928  -21.9593 H   0  0  0  0  0  0
  -22.3929  -19.8379  -20.9587 H   0  0  0  0  0  0
  -31.7602  -20.1218  -21.2602 H   0  0  0  0  0  0
  -30.2053  -20.8057  -20.8633 H   0  0  0  0  0  0
  1  2  1  0  0  0
  1 27  1  0  0  0
  1 28  1  0  0  0
  1 29  1  0  0  0
  2  3  1  0  0  0
  2 26  2  0  0  0
  3  4  1  0  0  0
  4  5  1  0  0  0
  4 30  1  0  0  0
  4 31  1  0  0  0
  5 22  1  0  0  0
  5  6  2  0  0  0
  6  7  1  0  0  0
  6 23  1  0  0  0
  7 10  1  0  0  0
  7  8  1  0  0  0
  8  9  1  0  0  0
  8 21  1  0  0  0
  8 32  1  0  0  0
  9 10  1  0  0  0
  9 12  1  0  0  0
  9 33  1  0  0  0
 10 11  2  0  0  0
 12 13  1  0  0  0
 12 34  1  0  0  0
 13 14  1  0  0  0
 13 20  2  0  0  0
 14 15  1  0  0  0
 14 35  1  0  0  0
 14 36  1  0  0  0
 15 19  1  0  0  0
 15 16  2  0  0  0
 16 17  1  0  0  0
 16 37  1  0  0  0
 17 18  2  0  0  0
 17 38  1  0  0  0
 18 19  1  0  0  0
 18 39  1  0  0  0
 21 22  1  0  0  0
 22 40  1  0  0  0
 22 41  1  0  0  0
 23 24  1  0  0  0
 23 25  2  0  0  0
M  CHG  1  24  -1
M  END
> <s_m_entry_id>
27735

> <s_m_entry_name>
data_maestro.33

> <s_m_Source_Path>
C:\Users\olshana1\Git\GramNeg-Accumulation\Gram Negative Permeation - OmpF

> <s_m_Source_File>
data_maestro.csv

> <i_m_Source_File_Index>
33

> <s_m_job_name>
glide-dock_Nicaido_neutral

> <s_i_glide_gridfile>
3POX-grid

> <i_i_glide_lignum>
42

> <i_i_glide_rotatable_bonds>
8

> <r_i_docking_score>
-3.8653969152497

> <r_i_glide_ligand_efficiency>
-0.148669112124989

> <r_i_glide_ligand_efficiency_sa>
-0.44043165968557

> <r_i_glide_ligand_efficiency_ln>
-0.907775782144609

> <r_i_glide_gscore>
-3.8653969152497

> <r_i_glide_lipo>
0

> <r_i_glide_hbond>
-0.728069054703227

> <r_i_glide_metal>
0

> <r_i_glide_rewards>
-0.712961790277419

> <r_i_glide_evdw>
-23.8544635772705

> <r_i_glide_ecoul>
-9.00096893310547

> <r_i_glide_erotb>
0.625287901339008

> <r_i_glide_esite>
-0.506785452778718

> <r_i_glide_emodel>
-51.028374839369

> <r_i_glide_energy>
-32.855432510376

> <r_i_glide_einternal>
4.26583862304688

> <i_i_glide_confnum>
74

> <i_i_glide_posenum>
247

> <r_i_glide_eff_state_penalty>
0

> <r_glide_res:A132_vdw>
-0.170994547052266

> <r_glide_res:A132_coul>
-25.4388861337095

> <r_glide_res:A132_hbond>
-0.0192524007497495

> <r_glide_res:A132_dist>
1.81693439527088

> <r_glide_res:A132_Eint>
-25.6291330815115

> <r_glide_res:A117_vdw>
-5.8044027466471

> <r_glide_res:A117_coul>
12.4119803035612

> <r_glide_res:A117_hbond>
-0.12274183238771

> <r_glide_res:A117_dist>
1.93339777905526

> <r_glide_res:A117_Eint>
6.48483572452635

> <r_glide_res:A113_vdw>
-2.44137043942912

> <r_glide_res:A113_coul>
19.9589231033621

> <r_glide_res:A113_hbond>
0

> <r_glide_res:A113_dist>
2.42693750913225

> <r_glide_res:A113_Eint>
17.517552663933

> <r_glide_res:A82_vdw>
-1.63074548891764

> <r_glide_res:A82_coul>
-42.3132079918559

> <r_glide_res:A82_hbond>
-0.120312401866335

> <r_glide_res:A82_dist>
2.19921899533416

> <r_glide_res:A82_Eint>
-44.0642658826399

> <r_glide_res:A42_vdw>
-0.872663384594579

> <r_glide_res:A42_coul>
-51.8829241282681

> <r_glide_res:A42_hbond>
-0.35296363769339

> <r_glide_res:A42_dist>
1.93383977699722

> <r_glide_res:A42_Eint>
-53.1085511505561

> <r_glide_res:A16_vdw>
-0.888095794451005

> <r_glide_res:A16_coul>
-52.983654913092

> <r_glide_res:A16_hbond>
-0.112798782006043

> <r_glide_res:A16_dist>
2.15248527148022

> <r_glide_res:A16_Eint>
-53.9845494895491

> <s_m_source_file>
ligprep_Nicaido_neutral.maegz

> <i_m_source_file_index>
33

> <i_lp_mmshare_version>
58128

> <i_f3d_flags>
0

> <s_lp_Force_Field>
S-OPLS

> <r_lp_Energy>
31.39315

> <b_lp_Chiralities_Consistent>
1

> <s_lp_Variant>
Cephalothin-1

> <s_epik_input>
W0NIM11DKD1PKU9bQ0gyXUMoPUMxQyg9TylbT0hdKVtDSDJdU1tDQEBIXShOMTIpW0NASF0oQzI9TylbTkhdQyg9TylbQ0gyXWMzW2NIXVtjSF1bY0hdczM=

> <s_epik_cmdline>
J2VwaWtfcHl0aG9uJywgJy1waHQnLCAnMC4wJywgJy1waCcsICc3LjQnLCAnLW50JywgJy1tYScsICc1MDAnLCAnLWltYWUnLCAnPGluZmlsZS5tYWU+JywgJy1vbWFlJywgJzxvdXRmaWxlLm1hZT4n

> <r_lp_tautomer_probability>
1

> <r_epik_Ionization_Penalty>
  0.0000

> <r_epik_Ionization_Penalty_Charging>
  0.0000

> <r_epik_Ionization_Penalty_Neutral>
  0.0000

> <r_epik_State_Penalty>
  0.0000

> <r_epik_Charging_Adjusted_Penalty>
6.16900125885048e-06

> <i_epik_Tot_Q>
-1

> <i_epik_Tot_abs_Q>
1

> <s_epik_Chemistry_Notes>
This compound has an ester and may undergo hydrolysis at high or low pH. This compound contains an acetal/aminal-like group ( X-CH(R)-Y where X, Y are N, S, or O) that may be acid/base labile, releasing an aldehyde.

> <s_m_subgroup_title>
glide-dock_Nicaido_neutral_pv1

> <s_m_subgroupid>
glide-dock_Nicaido_neutral_pv1

> <b_m_subgroup_collapsed>
0

$$$$
Ceftazidime
                    3D
 Schrodinger Suite 2022-2.
 58 61  0  0  1  0            999 V2000
  -23.4265  -22.6922  -15.6008 C   0  0  0  0  0  0
  -22.1909  -22.8073  -16.5364 C   0  0  0  0  0  0
  -21.1582  -21.7378  -16.1246 C   0  0  0  0  0  0
  -21.5586  -24.2358  -16.4610 C   0  0  0  0  0  0
  -20.3908  -24.3504  -16.0146 O   0  5  0  0  0  0
  -22.2486  -25.2225  -16.8134 O   0  0  0  0  0  0
  -22.5353  -22.4331  -17.8838 O   0  0  0  0  0  0
  -23.6446  -23.1683  -18.3448 N   0  0  0  0  0  0
  -24.5998  -22.4436  -18.7674 C   0  0  0  0  0  0
  -25.8695  -23.1350  -19.2314 C   0  0  0  0  0  0
  -26.9304  -22.3287  -19.3868 N   0  0  0  0  0  0
  -28.2171  -22.7268  -19.9498 C   0  0  1  0  0  0
  -28.9441  -21.5199  -20.5682 C   0  0  2  0  0  0
  -28.7921  -22.1618  -21.8584 N   0  0  0  0  0  0
  -29.1189  -21.5668  -23.0813 C   0  0  0  0  0  0
  -29.1646  -22.5705  -24.2773 C   0  0  0  0  0  0
  -29.9398  -23.5477  -24.1794 O   0  5  0  0  0  0
  -28.3698  -22.3495  -25.2139 O   0  0  0  0  0  0
  -29.3676  -20.2343  -23.1932 C   0  0  0  0  0  0
  -29.7730  -19.5451  -24.4943 C   0  0  0  0  0  0
  -31.1845  -19.1261  -24.4234 N   0  3  0  0  0  0
  -32.1520  -20.0825  -24.4066 C   0  0  0  0  0  0
  -33.5164  -19.7273  -24.3836 C   0  0  0  0  0  0
  -33.8690  -18.3637  -24.3897 C   0  0  0  0  0  0
  -32.8456  -17.3948  -24.4134 C   0  0  0  0  0  0
  -31.4985  -17.8063  -24.4184 C   0  0  0  0  0  0
  -29.2434  -19.2620  -22.0217 C   0  0  0  0  0  0
  -28.2076  -19.8640  -20.6743 S   0  0  0  0  0  0
  -28.1327  -23.2749  -21.4019 C   0  0  0  0  0  0
  -27.6273  -24.2115  -21.9902 O   0  0  0  0  0  0
  -25.9067  -24.3487  -19.4584 O   0  0  0  0  0  0
  -24.5811  -20.9454  -18.8201 C   0  0  0  0  0  0
  -24.7103  -20.2675  -20.0130 C   0  0  0  0  0  0
  -24.6659  -18.5365  -19.8029 S   0  0  0  0  0  0
  -24.4259  -18.7944  -18.0842 C   0  0  0  0  0  0
  -24.2387  -17.7346  -17.2157 N   0  0  0  0  0  0
  -24.4170  -20.0801  -17.7278 N   0  0  0  0  0  0
  -23.1689  -22.7717  -14.5490 H   0  0  0  0  0  0
  -23.9001  -21.7188  -15.7075 H   0  0  0  0  0  0
  -24.1908  -23.4379  -15.8205 H   0  0  0  0  0  0
  -20.8356  -21.8646  -15.0897 H   0  0  0  0  0  0
  -20.2732  -21.7720  -16.7617 H   0  0  0  0  0  0
  -21.5833  -20.7383  -16.2141 H   0  0  0  0  0  0
  -26.8347  -21.3459  -19.1620 H   0  0  0  0  0  0
  -28.8515  -23.2905  -19.2649 H   0  0  0  0  0  0
  -29.9987  -21.4724  -20.2958 H   0  0  0  0  0  0
  -29.1441  -18.6709  -24.6752 H   0  0  0  0  0  0
  -29.6836  -20.1783  -25.3748 H   0  0  0  0  0  0
  -31.8137  -21.1103  -24.4085 H   0  0  0  0  0  0
  -34.2835  -20.4891  -24.3526 H   0  0  0  0  0  0
  -34.9078  -18.0626  -24.3648 H   0  0  0  0  0  0
  -33.0885  -16.3411  -24.3966 H   0  0  0  0  0  0
  -30.6753  -17.1037  -24.4240 H   0  0  0  0  0  0
  -28.7721  -18.3496  -22.3693 H   0  0  0  0  0  0
  -30.2332  -19.0060  -21.6394 H   0  0  0  0  0  0
  -24.8445  -20.6739  -21.0053 H   0  0  0  0  0  0
  -24.1135  -17.8663  -16.2217 H   0  0  0  0  0  0
  -24.3127  -16.7775  -17.5295 H   0  0  0  0  0  0
  1  2  1  0  0  0
  1 38  1  0  0  0
  1 39  1  0  0  0
  1 40  1  0  0  0
  2  3  1  0  0  0
  2  4  1  0  0  0
  2  7  1  0  0  0
  3 41  1  0  0  0
  3 42  1  0  0  0
  3 43  1  0  0  0
  4  5  1  0  0  0
  4  6  2  0  0  0
  7  8  1  0  0  0
  8  9  2  3  0  0
  9 10  1  0  0  0
  9 32  1  0  0  0
 10 11  1  0  0  0
 10 31  2  0  0  0
 11 12  1  0  0  0
 11 44  1  0  0  0
 12 29  1  0  0  0
 12 13  1  0  0  0
 12 45  1  0  0  0
 13 28  1  0  0  0
 13 14  1  0  0  0
 13 46  1  0  0  0
 14 15  1  0  0  0
 14 29  1  0  0  0
 15 16  1  0  0  0
 15 19  2  0  0  0
 16 17  1  0  0  0
 16 18  2  0  0  0
 19 20  1  0  0  0
 19 27  1  0  0  0
 20 21  1  0  0  0
 20 47  1  0  0  0
 20 48  1  0  0  0
 21 26  1  0  0  0
 21 22  2  0  0  0
 22 23  1  0  0  0
 22 49  1  0  0  0
 23 24  2  0  0  0
 23 50  1  0  0  0
 24 25  1  0  0  0
 24 51  1  0  0  0
 25 26  2  0  0  0
 25 52  1  0  0  0
 26 53  1  0  0  0
 27 28  1  0  0  0
 27 54  1  0  0  0
 27 55  1  0  0  0
 29 30  2  0  0  0
 32 37  1  0  0  0
 32 33  2  0  0  0
 33 34  1  0  0  0
 33 56  1  0  0  0
 34 35  1  0  0  0
 35 36  1  0  0  0
 35 37  2  0  0  0
 36 57  1  0  0  0
 36 58  1  0  0  0
M  CHG  3   5  -1  17  -1  21   1
M  END
> <s_m_entry_id>
27736

> <s_m_entry_name>
data_maestro.30

> <s_m_Source_Path>
C:\Users\olshana1\Git\GramNeg-Accumulation\Gram Negative Permeation - OmpF

> <s_m_Source_File>
data_maestro.csv

> <i_m_Source_File_Index>
30

> <s_m_job_name>
glide-dock_Nicaido_neutral

> <s_i_glide_gridfile>
3POX-grid

> <i_i_glide_lignum>
38

> <i_i_glide_rotatable_bonds>
10

> <r_i_docking_score>
-3.86116466668353

> <r_i_glide_ligand_efficiency>
-0.104355801802257

> <r_i_glide_ligand_efficiency_sa>
-0.347736682692967

> <r_i_glide_ligand_efficiency_ln>
-0.837396097661011

> <r_i_glide_gscore>
-3.86116466668353

> <r_i_glide_lipo>
0

> <r_i_glide_hbond>
-0.976103992940757

> <r_i_glide_metal>
0

> <r_i_glide_rewards>
1.40943111807538

> <r_i_glide_evdw>
-34.4771041870117

> <r_i_glide_ecoul>
-17.0055637359619

> <r_i_glide_erotb>
0.556495996469625

> <r_i_glide_esite>
-0.576298018542902

> <r_i_glide_emodel>
-71.459681233966

> <r_i_glide_energy>
-51.4826679229736

> <r_i_glide_einternal>
8.83894062042236

> <i_i_glide_confnum>
208

> <i_i_glide_posenum>
124

> <r_i_glide_eff_state_penalty>
0

> <r_glide_res:A132_vdw>
-0.864178185481184

> <r_glide_res:A132_coul>
-39.0811916132329

> <r_glide_res:A132_hbond>
-0.196502606239364

> <r_glide_res:A132_dist>
1.99954737936325

> <r_glide_res:A132_Eint>
-40.1418724049534

> <r_glide_res:A117_vdw>
-3.16037166836602

> <r_glide_res:A117_coul>
6.81870495141213

> <r_glide_res:A117_hbond>
0

> <r_glide_res:A117_dist>
2.20638225693689

> <r_glide_res:A117_Eint>
3.65833328304611

> <r_glide_res:A113_vdw>
-3.32699755839914

> <r_glide_res:A113_coul>
4.20712052153591

> <r_glide_res:A113_hbond>
0

> <r_glide_res:A113_dist>
2.45257490415837

> <r_glide_res:A113_Eint>
0.880122963136779

> <r_glide_res:A82_vdw>
-1.49105792700197

> <r_glide_res:A82_coul>
-41.5172421420629

> <r_glide_res:A82_hbond>
-0.208969474461157

> <r_glide_res:A82_dist>
2.00849893039011

> <r_glide_res:A82_Eint>
-43.217269543526

> <r_glide_res:A42_vdw>
0.371494095796348

> <r_glide_res:A42_coul>
-40.2329848012565

> <r_glide_res:A42_hbond>
-0.34892213236051

> <r_glide_res:A42_dist>
1.90632139582384

> <r_glide_res:A42_Eint>
-40.2104128378206

> <r_glide_res:A16_vdw>
-0.705986539207581

> <r_glide_res:A16_coul>
-9.02573495309017

> <r_glide_res:A16_hbond>
0

> <r_glide_res:A16_dist>
2.97822269244391

> <r_glide_res:A16_Eint>
-9.73172149229775

> <s_m_source_file>
ligprep_Nicaido_neutral.maegz

> <i_m_source_file_index>
30

> <i_lp_mmshare_version>
58128

> <i_f3d_flags>
0

> <s_lp_Force_Field>
S-OPLS

> <r_lp_Energy>
86.633473

> <b_lp_Chiralities_Consistent>
1

> <s_lp_Variant>
Ceftazidime-1

> <s_epik_input>
W09IXUMoPU8pQyhbQ0gzXSkoW0NIM10pTy9OPUMoYzFbY0hdc2MobjEpW05IMl0pL0MoPU8pW05IXVtDQEBIXTJDKD1PKU4oW0NAQEhdMjMpQyhDKD1PKVtPSF0pPUMoW0NIMl1TMylbQ0gyXVtuK100W2NIXVtjSF1bY0hdW2NIXVtjSF00

> <s_epik_cmdline>
J2VwaWtfcHl0aG9uJywgJy1waHQnLCAnMC4wJywgJy1waCcsICc3LjQnLCAnLW50JywgJy1tYScsICc1MDAnLCAnLWltYWUnLCAnPGluZmlsZS5tYWU+JywgJy1vbWFlJywgJzxvdXRmaWxlLm1hZT4n

> <r_lp_tautomer_probability>
1

> <r_epik_Ionization_Penalty>
  0.0005

> <r_epik_Ionization_Penalty_Charging>
  0.0001

> <r_epik_Ionization_Penalty_Neutral>
  0.0005

> <r_epik_State_Penalty>
  0.0000

> <r_epik_Charging_Adjusted_Penalty>
5.84857251211915e-05

> <i_epik_Tot_Q>
-1

> <i_epik_Tot_abs_Q>
3

> <s_epik_Chemistry_Notes>
This compound has an imine and may undergo hydrolysis. This compound contains an acetal/aminal-like group ( X-CH(R)-Y where X, Y are N, S, or O) that may be acid/base labile, releasing an aldehyde.

> <s_m_subgroup_title>
glide-dock_Nicaido_neutral_pv1

> <s_m_subgroupid>
glide-dock_Nicaido_neutral_pv1

> <b_m_subgroup_collapsed>
0

$$$$
Cefaclor
                    3D
 Schrodinger Suite 2022-2.
 37 39  0  0  1  0            999 V2000
  -26.8188  -23.1500  -23.6136 O   0  0  0  0  0  0
  -26.0645  -22.2911  -23.2099 C   0  0  0  0  0  0
  -26.1449  -21.0092  -22.3366 C   0  0  2  0  0  0
  -24.6259  -21.1940  -22.1826 C   0  0  1  0  0  0
  -24.7019  -22.0625  -23.3542 N   0  0  0  0  0  0
  -23.5064  -22.6392  -23.8182 C   0  0  0  0  0  0
  -23.4127  -24.1933  -24.0331 C   0  0  0  0  0  0
  -22.3699  -24.7495  -23.6134 O   0  5  0  0  0  0
  -24.3684  -24.7631  -24.6082 O   0  0  0  0  0  0
  -22.4877  -21.7935  -24.0914 C   0  0  0  0  0  0
  -22.6133  -20.2844  -23.9647 C   0  0  0  0  0  0
  -23.4409  -19.8057  -22.4200 S   0  0  0  0  0  0
  -20.9404  -22.2608  -24.7131 Cl  0  0  0  0  0  0
  -26.8321  -21.0727  -21.0361 N   0  0  0  0  0  0
  -27.0097  -22.1055  -20.1874 C   0  0  0  0  0  0
  -27.4827  -21.7233  -18.7707 C   0  0  2  0  0  0
  -26.1954  -21.5280  -18.0246 C   0  0  0  0  0  0
  -25.5758  -22.5626  -17.2803 C   0  0  0  0  0  0
  -24.3603  -22.3600  -16.5992 C   0  0  0  0  0  0
  -23.7155  -21.1142  -16.6660 C   0  0  0  0  0  0
  -24.3037  -20.0708  -17.4009 C   0  0  0  0  0  0
  -25.5289  -20.2797  -18.0621 C   0  0  0  0  0  0
  -28.3687  -22.7348  -18.1916 N   0  0  0  0  0  0
  -26.7874  -23.2889  -20.4721 O   0  0  0  0  0  0
  -26.3882  -20.1041  -22.8958 H   0  0  0  0  0  0
  -24.3438  -21.7750  -21.3005 H   0  0  0  0  0  0
  -21.6392  -19.7973  -24.0136 H   0  0  0  0  0  0
  -23.2011  -19.9138  -24.8049 H   0  0  0  0  0  0
  -27.1114  -20.1711  -20.6739 H   0  0  0  0  0  0
  -28.0404  -20.7846  -18.8132 H   0  0  0  0  0  0
  -26.0489  -23.5315  -17.2150 H   0  0  0  0  0  0
  -23.9264  -23.1590  -16.0189 H   0  0  0  0  0  0
  -22.7855  -20.9539  -16.1410 H   0  0  0  0  0  0
  -23.8237  -19.1044  -17.4469 H   0  0  0  0  0  0
  -25.9661  -19.4571  -18.6097 H   0  0  0  0  0  0
  -29.2986  -22.3474  -18.0152 H   0  0  0  0  0  0
  -28.5283  -23.4756  -18.8547 H   0  0  0  0  0  0
  1  2  2  0  0  0
  2  5  1  0  0  0
  2  3  1  0  0  0
  3  4  1  0  0  0
  3 14  1  0  0  0
  3 25  1  0  0  0
  4 12  1  0  0  0
  4  5  1  0  0  0
  4 26  1  0  0  0
  5  6  1  0  0  0
  6  7  1  0  0  0
  6 10  2  0  0  0
  7  8  1  0  0  0
  7  9  2  0  0  0
 10 11  1  0  0  0
 10 13  1  0  0  0
 11 12  1  0  0  0
 11 27  1  0  0  0
 11 28  1  0  0  0
 14 15  1  0  0  0
 14 29  1  0  0  0
 15 16  1  0  0  0
 15 24  2  0  0  0
 16 17  1  0  0  0
 16 23  1  0  0  0
 16 30  1  0  0  0
 17 22  1  0  0  0
 17 18  2  0  0  0
 18 19  1  0  0  0
 18 31  1  0  0  0
 19 20  2  0  0  0
 19 32  1  0  0  0
 20 21  1  0  0  0
 20 33  1  0  0  0
 21 22  2  0  0  0
 21 34  1  0  0  0
 22 35  1  0  0  0
 23 36  1  0  0  0
 23 37  1  0  0  0
M  CHG  1   8  -1
M  END
> <s_m_entry_id>
27737

> <s_m_entry_name>
data_maestro.15

> <s_m_Source_Path>
C:\Users\olshana1\Git\GramNeg-Accumulation\Gram Negative Permeation - OmpF

> <s_m_Source_File>
data_maestro.csv

> <i_m_Source_File_Index>
15

> <s_m_job_name>
glide-dock_Nicaido_neutral

> <s_i_glide_gridfile>
3POX-grid

> <i_i_glide_lignum>
20

> <i_i_glide_rotatable_bonds>
5

> <r_i_docking_score>
-3.84311727305307

> <r_i_glide_ligand_efficiency>
-0.160129886377211

> <r_i_glide_ligand_efficiency_sa>
-0.461894519152506

> <r_i_glide_ligand_efficiency_ln>
-0.919834312602195

> <r_i_glide_gscore>
-3.95951727305307

> <r_i_glide_lipo>
0

> <r_i_glide_hbond>
-0.502240546455838

> <r_i_glide_metal>
0

> <r_i_glide_rewards>
-0.897951711603097

> <r_i_glide_evdw>
-24.0129108428955

> <r_i_glide_ecoul>
-9.93803024291992

> <r_i_glide_erotb>
0.429266414571003

> <r_i_glide_esite>
-0.297241350982375

> <r_i_glide_emodel>
-49.3810638132645

> <r_i_glide_energy>
-33.9509410858154

> <r_i_glide_einternal>
6.10108661651611

> <i_i_glide_confnum>
17

> <i_i_glide_posenum>
193

> <r_i_glide_eff_state_penalty>
0.1164

> <r_glide_res:A132_vdw>
-1.85485531040692

> <r_glide_res:A132_coul>
-35.0673162240786

> <r_glide_res:A132_hbond>
0

> <r_glide_res:A132_dist>
2.61011040981378

> <r_glide_res:A132_Eint>
-36.9221715344855

> <r_glide_res:A117_vdw>
-1.62573692356761

> <r_glide_res:A117_coul>
16.2798198939884

> <r_glide_res:A117_hbond>
0

> <r_glide_res:A117_dist>
3.45744018946937

> <r_glide_res:A117_Eint>
14.6540829704208

> <r_glide_res:A113_vdw>
-1.32902311874257

> <r_glide_res:A113_coul>
8.01951468402151

> <r_glide_res:A113_hbond>
-0.16

> <r_glide_res:A113_dist>
1.98331614826958

> <r_glide_res:A113_Eint>
6.53049156527894

> <r_glide_res:A82_vdw>
-1.08664739991048

> <r_glide_res:A82_coul>
-43.3144672775551

> <r_glide_res:A82_hbond>
-0.142240546455838

> <r_glide_res:A82_dist>
2.14419830782676

> <r_glide_res:A82_Eint>
-44.5433552239215

> <r_glide_res:A42_vdw>
-1.64603158270813

> <r_glide_res:A42_coul>
-34.6960189721429

> <r_glide_res:A42_hbond>
0

> <r_glide_res:A42_dist>
2.54239208981175

> <r_glide_res:A42_Eint>
-36.342050554851

> <r_glide_res:A16_vdw>
-0.0933500489318894

> <r_glide_res:A16_coul>
-17.1913494725605

> <r_glide_res:A16_hbond>
0

> <r_glide_res:A16_dist>
6.02727209873431

> <r_glide_res:A16_Eint>
-17.2846995214924

> <s_m_source_file>
ligprep_Nicaido_neutral.maegz

> <i_m_source_file_index>
15

> <i_lp_mmshare_version>
58128

> <i_f3d_flags>
0

> <s_lp_Force_Field>
S-OPLS

> <r_lp_Energy>
48.098991

> <b_lp_Chiralities_Consistent>
1

> <s_lp_Variant>
Cefaclor-1

> <s_epik_input>
UzFbQ0gyXUMoQ2wpPUMoQyg9TylbT0hdKU4oW0NAQEhdMTIpQyg9TylbQ0BIXTJbTkhdQyg9TylbQ0BASF0oW05IMl0pYzNbY0hdW2NIXVtjSF1bY0hdW2NIXTM=

> <s_epik_cmdline>
J2VwaWtfcHl0aG9uJywgJy1waHQnLCAnMC4wJywgJy1waCcsICc3LjQnLCAnLW50JywgJy1tYScsICc1MDAnLCAnLWltYWUnLCAnPGluZmlsZS5tYWU+JywgJy1vbWFlJywgJzxvdXRmaWxlLm1hZT4n

> <r_epik_Ionization_Penalty>
  0.1164

> <r_epik_Ionization_Penalty_Charging>
  0.0000

> <r_epik_Ionization_Penalty_Neutral>
  0.1164

> <r_epik_State_Penalty>
  0.1164

> <r_epik_Charging_Adjusted_Penalty>
0.116403072965043

> <i_epik_Tot_Q>
-1

> <i_epik_Tot_abs_Q>
1

> <s_epik_Chemistry_Notes>
This compound contains an acetal/aminal-like group ( X-CH(R)-Y where X, Y are N, S, or O) that may be acid/base labile, releasing an aldehyde.

> <s_m_subgroup_title>
glide-dock_Nicaido_neutral_pv1

> <s_m_subgroupid>
glide-dock_Nicaido_neutral_pv1

> <b_m_subgroup_collapsed>
0

$$$$
Piperacillin
                    3D
 Schrodinger Suite 2022-2.
 62 65  0  0  1  0            999 V2000
  -28.3311  -18.5952  -25.5138 C   0  0  0  0  0  0
  -29.6299  -18.9678  -24.7839 C   0  0  0  0  0  0
  -29.4075  -20.0320  -23.7961 N   0  0  0  0  0  0
  -29.2155  -19.5808  -22.4164 C   0  0  0  0  0  0
  -29.6191  -20.6709  -21.4172 C   0  0  0  0  0  0
  -28.9547  -21.9595  -21.7325 N   0  0  0  0  0  0
  -29.0513  -22.3954  -23.0284 C   0  0  0  0  0  0
  -29.3614  -21.3397  -24.1501 C   0  0  0  0  0  0
  -29.5148  -21.7405  -25.3123 O   0  0  0  0  0  0
  -28.8301  -23.5495  -23.4168 O   0  0  0  0  0  0
  -28.3344  -22.7044  -20.7627 C   0  0  0  0  0  0
  -27.8848  -21.9762  -19.7178 N   0  0  0  0  0  0
  -26.6917  -22.1501  -18.8655 C   0  0  2  0  0  0
  -25.9247  -20.8522  -18.8413 C   0  0  0  0  0  0
  -25.8941  -19.9530  -19.9416 C   0  0  0  0  0  0
  -25.1624  -18.7516  -19.8975 C   0  0  0  0  0  0
  -24.4342  -18.4145  -18.7444 C   0  0  0  0  0  0
  -24.4434  -19.2854  -17.6418 C   0  0  0  0  0  0
  -25.1803  -20.4854  -17.6938 C   0  0  0  0  0  0
  -25.6946  -23.2459  -19.3292 C   0  0  0  0  0  0
  -24.8079  -22.9197  -20.2801 N   0  0  0  0  0  0
  -24.0390  -23.8704  -21.0671 C   0  0  1  0  0  0
  -24.4994  -23.8503  -22.5331 C   0  0  2  0  0  0
  -23.1733  -23.3891  -22.8856 N   0  0  0  0  0  0
  -22.7127  -23.3176  -21.5949 C   0  0  0  0  0  0
  -21.6713  -22.9165  -21.1246 O   0  0  0  0  0  0
  -22.9044  -22.6420  -24.0919 C   0  0  2  0  0  0
  -24.1171  -21.6501  -24.1531 C   0  0  0  0  0  0
  -23.8180  -20.3940  -23.3070 C   0  0  0  0  0  0
  -25.5079  -22.5503  -23.3519 S   0  0  0  0  0  0
  -24.4907  -21.1642  -25.5710 C   0  0  0  0  0  0
  -22.7770  -23.6845  -25.2226 C   0  0  0  0  0  0
  -23.8033  -24.2950  -25.6080 O   0  5  0  0  0  0
  -21.6178  -23.9491  -25.6058 O   0  0  0  0  0  0
  -25.7935  -24.3952  -18.9002 O   0  0  0  0  0  0
  -28.0832  -23.9143  -20.8630 O   0  0  0  0  0  0
  -28.5223  -17.8300  -26.2675 H   0  0  0  0  0  0
  -27.5906  -18.1909  -24.8208 H   0  0  0  0  0  0
  -27.8850  -19.4563  -26.0132 H   0  0  0  0  0  0
  -30.3834  -19.2821  -25.5077 H   0  0  0  0  0  0
  -30.0431  -18.0719  -24.3129 H   0  0  0  0  0  0
  -28.1692  -19.3088  -22.2791 H   0  0  0  0  0  0
  -29.7961  -18.6801  -22.2130 H   0  0  0  0  0  0
  -30.6969  -20.8284  -21.4674 H   0  0  0  0  0  0
  -29.4536  -20.2873  -20.4135 H   0  0  0  0  0  0
  -28.2757  -21.0451  -19.6561 H   0  0  0  0  0  0
  -27.0421  -22.4005  -17.8625 H   0  0  0  0  0  0
  -26.4312  -20.1769  -20.8521 H   0  0  0  0  0  0
  -25.1695  -18.0857  -20.7482 H   0  0  0  0  0  0
  -23.8791  -17.4887  -18.7007 H   0  0  0  0  0  0
  -23.8923  -19.0241  -16.7512 H   0  0  0  0  0  0
  -25.1825  -21.1302  -16.8270 H   0  0  0  0  0  0
  -24.7723  -21.9512  -20.5703 H   0  0  0  0  0  0
  -23.9702  -24.8761  -20.6509 H   0  0  0  0  0  0
  -24.7257  -24.8399  -22.9321 H   0  0  0  0  0  0
  -21.9609  -22.0992  -24.0036 H   0  0  0  0  0  0
  -22.9732  -19.8348  -23.7114 H   0  0  0  0  0  0
  -23.5830  -20.6403  -22.2731 H   0  0  0  0  0  0
  -24.6734  -19.7171  -23.2885 H   0  0  0  0  0  0
  -23.6536  -20.6385  -26.0341 H   0  0  0  0  0  0
  -24.7693  -21.9696  -26.2440 H   0  0  0  0  0  0
  -25.3327  -20.4713  -25.5381 H   0  0  0  0  0  0
  1  2  1  0  0  0
  1 37  1  0  0  0
  1 38  1  0  0  0
  1 39  1  0  0  0
  2  3  1  0  0  0
  2 40  1  0  0  0
  2 41  1  0  0  0
  3  8  1  0  0  0
  3  4  1  0  0  0
  4  5  1  0  0  0
  4 42  1  0  0  0
  4 43  1  0  0  0
  5  6  1  0  0  0
  5 44  1  0  0  0
  5 45  1  0  0  0
  6  7  1  0  0  0
  6 11  1  0  0  0
  7  8  1  0  0  0
  7 10  2  0  0  0
  8  9  2  0  0  0
 11 12  1  0  0  0
 11 36  2  0  0  0
 12 13  1  0  0  0
 12 46  1  0  0  0
 13 14  1  0  0  0
 13 20  1  0  0  0
 13 47  1  0  0  0
 14 19  1  0  0  0
 14 15  2  0  0  0
 15 16  1  0  0  0
 15 48  1  0  0  0
 16 17  2  0  0  0
 16 49  1  0  0  0
 17 18  1  0  0  0
 17 50  1  0  0  0
 18 19  2  0  0  0
 18 51  1  0  0  0
 19 52  1  0  0  0
 20 21  1  0  0  0
 20 35  2  0  0  0
 21 22  1  0  0  0
 21 53  1  0  0  0
 22 25  1  0  0  0
 22 23  1  0  0  0
 22 54  1  0  0  0
 23 30  1  0  0  0
 23 24  1  0  0  0
 23 55  1  0  0  0
 24 25  1  0  0  0
 24 27  1  0  0  0
 25 26  2  0  0  0
 27 28  1  0  0  0
 27 32  1  0  0  0
 27 56  1  0  0  0
 28 29  1  0  0  0
 28 30  1  0  0  0
 28 31  1  0  0  0
 29 57  1  0  0  0
 29 58  1  0  0  0
 29 59  1  0  0  0
 31 60  1  0  0  0
 31 61  1  0  0  0
 31 62  1  0  0  0
 32 33  1  0  0  0
 32 34  2  0  0  0
M  CHG  1  33  -1
M  END
> <s_m_entry_id>
27738

> <s_m_entry_name>
data_maestro.11

> <s_m_Source_Path>
C:\Users\olshana1\Git\GramNeg-Accumulation\Gram Negative Permeation - OmpF

> <s_m_Source_File>
data_maestro.csv

> <i_m_Source_File_Index>
11

> <s_m_job_name>
glide-dock_Nicaido_neutral

> <s_i_glide_gridfile>
3POX-grid

> <i_i_glide_lignum>
15

> <i_i_glide_rotatable_bonds>
9

> <r_i_docking_score>
-3.83773208643721

> <r_i_glide_ligand_efficiency>
-0.1066036690677

> <r_i_glide_ligand_efficiency_sa>
-0.351997559306321

> <r_i_glide_ligand_efficiency_ln>
-0.837289457721733

> <r_i_glide_gscore>
-3.83773208643721

> <r_i_glide_lipo>
0

> <r_i_glide_hbond>
-0.378697922071319

> <r_i_glide_metal>
0

> <r_i_glide_rewards>
0.170692667918397

> <r_i_glide_evdw>
-35.0859642028809

> <r_i_glide_ecoul>
-10.7290964126587

> <r_i_glide_erotb>
0.461572583116075

> <r_i_glide_esite>
-0.727636743357514

> <r_i_glide_emodel>
-58.724700042347

> <r_i_glide_energy>
-45.8150606155396

> <r_i_glide_einternal>
15.4842414855957

> <i_i_glide_confnum>
192

> <i_i_glide_posenum>
255

> <r_i_glide_eff_state_penalty>
0

> <r_glide_res:A132_vdw>
-2.02736461666902

> <r_glide_res:A132_coul>
-34.1428487157486

> <r_glide_res:A132_hbond>
-0.183983963759708

> <r_glide_res:A132_dist>
1.82679173070041

> <r_glide_res:A132_Eint>
-36.3541972961773

> <r_glide_res:A117_vdw>
-4.41771311628038

> <r_glide_res:A117_coul>
14.7200742869999

> <r_glide_res:A117_hbond>
0

> <r_glide_res:A117_dist>
2.46480280788179

> <r_glide_res:A117_Eint>
10.3023611707195

> <r_glide_res:A113_vdw>
-2.80479132008669

> <r_glide_res:A113_coul>
6.28168427710754

> <r_glide_res:A113_hbond>
0

> <r_glide_res:A113_dist>
2.30370194446143

> <r_glide_res:A113_Eint>
3.47689295702085

> <r_glide_res:A82_vdw>
-2.82580501306846

> <r_glide_res:A82_coul>
-40.5072351864318

> <r_glide_res:A82_hbond>
-0.105203766657906

> <r_glide_res:A82_dist>
2.22371311206967

> <r_glide_res:A82_Eint>
-43.4382439661581

> <r_glide_res:A42_vdw>
-2.84112621367904

> <r_glide_res:A42_coul>
-43.5527864277146

> <r_glide_res:A42_hbond>
-0.0801526202102661

> <r_glide_res:A42_dist>
2.03003185774908

> <r_glide_res:A42_Eint>
-46.4740652616039

> <r_glide_res:A16_vdw>
-0.70871414189949

> <r_glide_res:A16_coul>
-21.5492300879812

> <r_glide_res:A16_hbond>
0

> <r_glide_res:A16_dist>
2.97012689995426

> <r_glide_res:A16_Eint>
-22.2579442298807

> <s_m_source_file>
ligprep_Nicaido_neutral.maegz

> <i_m_source_file_index>
11

> <i_lp_mmshare_version>
58128

> <i_f3d_flags>
0

> <s_lp_Force_Field>
S-OPLS

> <r_lp_Energy>
67.572455

> <b_lp_Chiralities_Consistent>
1

> <s_lp_Variant>
Piperacillin-1

> <s_epik_input>
W0NIM11bQ0gyXU4xW0NIMl1bQ0gyXU4oQyg9TylDMT1PKUMoPU8pW05IXVtDQEhdKGMyW2NIXVtjSF1bY0hdW2NIXVtjSF0yKUMoPU8pW05IXVtDQEBIXTNDKD1PKU4oW0NAQEhdMzQpW0NASF0oQyhTNCkoW0NIM10pW0NIM10pQyg9TylbT0hd

> <s_epik_cmdline>
J2VwaWtfcHl0aG9uJywgJy1waHQnLCAnMC4wJywgJy1waCcsICc3LjQnLCAnLW50JywgJy1tYScsICc1MDAnLCAnLWltYWUnLCAnPGluZmlsZS5tYWU+JywgJy1vbWFlJywgJzxvdXRmaWxlLm1hZT4n

> <r_lp_tautomer_probability>
1

> <r_epik_Ionization_Penalty>
  0.0049

> <r_epik_Ionization_Penalty_Charging>
  0.0000

> <r_epik_Ionization_Penalty_Neutral>
  0.0049

> <r_epik_State_Penalty>
  0.0000

> <r_epik_Charging_Adjusted_Penalty>
1.13204004886318e-05

> <i_epik_Tot_Q>
-1

> <i_epik_Tot_abs_Q>
1

> <s_epik_Chemistry_Notes>
This compound contains an acetal/aminal-like group ( X-CH(R)-Y where X, Y are N, S, or O) that may be acid/base labile, releasing an aldehyde.

> <s_m_subgroup_title>
glide-dock_Nicaido_neutral_pv1

> <s_m_subgroupid>
glide-dock_Nicaido_neutral_pv1

> <b_m_subgroup_collapsed>
0

$$$$
Cefotaxime
                    3D
 Schrodinger Suite 2022-2.
 46 48  0  0  1  0            999 V2000
  -30.2995  -17.7629  -26.0517 C   0  0  0  0  0  0
  -30.2761  -19.1875  -25.5185 C   0  0  0  0  0  0
  -30.6497  -19.2521  -24.2267 O   0  0  0  0  0  0
  -30.5852  -20.4696  -23.4939 C   0  0  0  0  0  0
  -29.2667  -20.5854  -22.7355 C   0  0  0  0  0  0
  -28.3914  -21.6083  -22.9144 C   0  0  0  0  0  0
  -27.1929  -21.6824  -22.1928 N   0  0  0  0  0  0
  -27.1060  -21.1837  -20.8303 C   0  0  1  0  0  0
  -25.6387  -21.6608  -20.8528 C   0  0  2  0  0  0
  -26.0582  -22.4705  -22.1066 C   0  0  0  0  0  0
  -25.6639  -23.4382  -22.7267 O   0  0  0  0  0  0
  -25.2407  -22.4643  -19.6890 N   0  0  0  0  0  0
  -25.8483  -23.5766  -19.2314 C   0  0  0  0  0  0
  -25.0666  -24.3349  -18.1551 C   0  0  0  0  0  0
  -23.9795  -23.5945  -17.4698 C   0  0  0  0  0  0
  -24.2189  -22.4418  -16.7548 C   0  0  0  0  0  0
  -22.7721  -21.8271  -16.0052 S   0  0  0  0  0  0
  -21.8965  -23.1987  -16.6652 C   0  0  0  0  0  0
  -20.5432  -23.3767  -16.4440 N   0  0  0  0  0  0
  -22.6481  -24.0256  -17.3902 N   0  0  0  0  0  0
  -25.2561  -25.5490  -17.8126 N   0  0  0  0  0  0
  -26.3690  -26.1536  -18.4133 O   0  0  0  0  0  0
  -27.0431  -26.9609  -17.4753 C   0  0  0  0  0  0
  -26.9066  -24.0010  -19.7024 O   0  0  0  0  0  0
  -27.4919  -19.4228  -20.8179 S   0  0  0  0  0  0
  -29.0735  -19.4532  -21.7160 C   0  0  0  0  0  0
  -28.6934  -22.8527  -23.8180 C   0  0  0  0  0  0
  -28.7666  -23.9492  -23.2134 O   0  5  0  0  0  0
  -28.7703  -22.6792  -25.0560 O   0  0  0  0  0  0
  -29.9690  -20.1345  -26.2458 O   0  0  0  0  0  0
  -29.2835  -17.3807  -26.1607 H   0  0  0  0  0  0
  -30.7973  -17.7208  -27.0202 H   0  0  0  0  0  0
  -30.8384  -17.1144  -25.3609 H   0  0  0  0  0  0
  -30.7719  -21.3226  -24.1453 H   0  0  0  0  0  0
  -31.3937  -20.4676  -22.7624 H   0  0  0  0  0  0
  -27.7805  -21.7260  -20.1652 H   0  0  0  0  0  0
  -24.9461  -20.8442  -21.0630 H   0  0  0  0  0  0
  -24.3896  -22.1725  -19.2305 H   0  0  0  0  0  0
  -25.1577  -21.9228  -16.6089 H   0  0  0  0  0  0
  -20.0445  -23.9208  -17.1309 H   0  0  0  0  0  0
  -20.0354  -22.5741  -16.0992 H   0  0  0  0  0  0
  -27.7768  -27.5537  -18.0133 H   0  0  0  0  0  0
  -26.3707  -27.6232  -16.9264 H   0  0  0  0  0  0
  -27.6082  -26.3494  -16.7805 H   0  0  0  0  0  0
  -29.1913  -18.4840  -22.2020 H   0  0  0  0  0  0
  -29.8703  -19.5295  -20.9746 H   0  0  0  0  0  0
  1  2  1  0  0  0
  1 31  1  0  0  0
  1 32  1  0  0  0
  1 33  1  0  0  0
  2  3  1  0  0  0
  2 30  2  0  0  0
  3  4  1  0  0  0
  4  5  1  0  0  0
  4 34  1  0  0  0
  4 35  1  0  0  0
  5 26  1  0  0  0
  5  6  2  0  0  0
  6  7  1  0  0  0
  6 27  1  0  0  0
  7 10  1  0  0  0
  7  8  1  0  0  0
  8  9  1  0  0  0
  8 25  1  0  0  0
  8 36  1  0  0  0
  9 10  1  0  0  0
  9 12  1  0  0  0
  9 37  1  0  0  0
 10 11  2  0  0  0
 12 13  1  0  0  0
 12 38  1  0  0  0
 13 14  1  0  0  0
 13 24  2  0  0  0
 14 15  1  0  0  0
 14 21  2  3  0  0
 15 20  1  0  0  0
 15 16  2  0  0  0
 16 17  1  0  0  0
 16 39  1  0  0  0
 17 18  1  0  0  0
 18 19  1  0  0  0
 18 20  2  0  0  0
 19 40  1  0  0  0
 19 41  1  0  0  0
 21 22  1  0  0  0
 22 23  1  0  0  0
 23 42  1  0  0  0
 23 43  1  0  0  0
 23 44  1  0  0  0
 25 26  1  0  0  0
 26 45  1  0  0  0
 26 46  1  0  0  0
 27 28  1  0  0  0
 27 29  2  0  0  0
M  CHG  1  28  -1
M  END
> <s_m_entry_id>
27739

> <s_m_entry_name>
data_maestro.6

> <s_m_Source_Path>
C:\Users\olshana1\Git\GramNeg-Accumulation\Gram Negative Permeation - OmpF

> <s_m_Source_File>
data_maestro.csv

> <i_m_Source_File_Index>
6

> <s_m_job_name>
glide-dock_Nicaido_neutral

> <s_i_glide_gridfile>
3POX-grid

> <i_i_glide_lignum>
8

> <i_i_glide_rotatable_bonds>
9

> <r_i_docking_score>
-3.82486406121737

> <r_i_glide_ligand_efficiency>
-0.127495468707246

> <r_i_glide_ligand_efficiency_sa>
-0.396158064279839

> <r_i_glide_ligand_efficiency_ln>
-0.869050789940457

> <r_i_glide_gscore>
-3.82486406121737

> <r_i_glide_lipo>
0

> <r_i_glide_hbond>
-0.821471572945702

> <r_i_glide_metal>
0

> <r_i_glide_rewards>
0.213436304173347

> <r_i_glide_evdw>
-27.4025039672852

> <r_i_glide_ecoul>
-12.0761098861694

> <r_i_glide_erotb>
0.680611118548691

> <r_i_glide_esite>
-0.715898229704028

> <r_i_glide_emodel>
-54.2727863499988

> <r_i_glide_energy>
-39.4786138534546

> <r_i_glide_einternal>
7.22541761398315

> <i_i_glide_confnum>
195

> <i_i_glide_posenum>
338

> <r_i_glide_eff_state_penalty>
0

> <r_glide_res:A132_vdw>
-3.72231654871012

> <r_glide_res:A132_coul>
-41.4124112691639

> <r_glide_res:A132_hbond>
-0.142118138554947

> <r_glide_res:A132_dist>
1.83446982466172

> <r_glide_res:A132_Eint>
-45.276845956429

> <r_glide_res:A117_vdw>
-2.98058177544915

> <r_glide_res:A117_coul>
23.3412482624763

> <r_glide_res:A117_hbond>
0

> <r_glide_res:A117_dist>
2.38882961687317

> <r_glide_res:A117_Eint>
20.3606664870271

> <r_glide_res:A113_vdw>
-2.11425277836124

> <r_glide_res:A113_coul>
22.2700692701985

> <r_glide_res:A113_hbond>
0

> <r_glide_res:A113_dist>
2.55480513317703

> <r_glide_res:A113_Eint>
20.1558164918372

> <r_glide_res:A82_vdw>
0.552966865670551

> <r_glide_res:A82_coul>
-54.5120595318072

> <r_glide_res:A82_hbond>
-0.27730180841016

> <r_glide_res:A82_dist>
1.89363423098321

> <r_glide_res:A82_Eint>
-54.2363944745468

> <r_glide_res:A42_vdw>
-0.23976813527083

> <r_glide_res:A42_coul>
-51.5483103388311

> <r_glide_res:A42_hbond>
-0.294612131334348

> <r_glide_res:A42_dist>
1.84517543108921

> <r_glide_res:A42_Eint>
-52.0826906054363

> <r_glide_res:A16_vdw>
-0.652080214347211

> <r_glide_res:A16_coul>
-35.6850197188724

> <r_glide_res:A16_hbond>
-0.107439494646247

> <r_glide_res:A16_dist>
2.16075762681757

> <r_glide_res:A16_Eint>
-36.4445394278658

> <s_m_source_file>
ligprep_Nicaido_neutral.maegz

> <i_m_source_file_index>
6

> <i_lp_mmshare_version>
58128

> <i_f3d_flags>
0

> <s_lp_Force_Field>
S-OPLS

> <r_lp_Energy>
51.702138

> <b_lp_Chiralities_Consistent>
1

> <s_lp_Variant>
Cefotaxime-2

> <s_epik_input>
W0NIM11DKD1PKU9bQ0gyXUMoPUMxQyg9TylbT0hdKVtDSDJdU1tDQEBIXShOMTIpW0NASF0oQzI9TylbTkhdQyg9TykvQyg9Ti9PW0NIM10pYzNbY0hdc2MobjMpW05IMl0=

> <s_epik_cmdline>
J2VwaWtfcHl0aG9uJywgJy1waHQnLCAnMC4wJywgJy1waCcsICc3LjQnLCAnLW50JywgJy1tYScsICc1MDAnLCAnLWltYWUnLCAnPGluZmlsZS5tYWU+JywgJy1vbWFlJywgJzxvdXRmaWxlLm1hZT4n

> <r_lp_tautomer_probability>
1

> <r_epik_Ionization_Penalty>
  0.0004

> <r_epik_Ionization_Penalty_Charging>
  0.0000

> <r_epik_Ionization_Penalty_Neutral>
  0.0004

> <r_epik_State_Penalty>
  0.0000

> <r_epik_Charging_Adjusted_Penalty>
5.45682606121274e-06

> <i_epik_Tot_Q>
-1

> <i_epik_Tot_abs_Q>
1

> <s_epik_Chemistry_Notes>
This compound has an ester and may undergo hydrolysis at high or low pH. This compound has an imine and may undergo hydrolysis. This compound contains an acetal/aminal-like group ( X-CH(R)-Y where X, Y are N, S, or O) that may be acid/base labile, releasing an aldehyde.

> <s_m_subgroup_title>
glide-dock_Nicaido_neutral_pv1

> <s_m_subgroupid>
glide-dock_Nicaido_neutral_pv1

> <b_m_subgroup_collapsed>
0

$$$$
Cephalothin
                    3D
 Schrodinger Suite 2022-2.
 41 43  0  0  1  0            999 V2000
  -33.9919  -23.5656  -21.9641 C   0  0  0  0  0  0
  -32.4717  -23.6194  -21.9314 C   0  0  0  0  0  0
  -31.9448  -22.6149  -21.2134 O   0  0  0  0  0  0
  -30.5397  -22.5137  -21.0325 C   0  0  0  0  0  0
  -29.9246  -21.4642  -21.9448 C   0  0  0  0  0  0
  -29.2066  -21.7663  -23.0544 C   0  0  0  0  0  0
  -28.6038  -20.7752  -23.8285 N   0  0  0  0  0  0
  -28.1499  -19.5430  -23.2284 C   0  0  1  0  0  0
  -27.4442  -19.2308  -24.5683 C   0  0  2  0  0  0
  -27.9869  -20.5988  -25.0437 C   0  0  0  0  0  0
  -27.9087  -21.3189  -26.0133 O   0  0  0  0  0  0
  -25.9754  -19.1496  -24.4592 N   0  0  0  0  0  0
  -25.0897  -20.0603  -24.0126 C   0  0  0  0  0  0
  -23.6476  -19.5783  -23.8505 C   0  0  0  0  0  0
  -23.3651  -19.1721  -22.4348 C   0  0  0  0  0  0
  -22.3802  -19.6552  -21.6103 C   0  0  0  0  0  0
  -22.3857  -19.0590  -20.3139 C   0  0  0  0  0  0
  -23.3743  -18.1239  -20.1629 C   0  0  0  0  0  0
  -24.3138  -17.9491  -21.6194 S   0  0  0  0  0  0
  -25.3753  -21.2212  -23.7155 O   0  0  0  0  0  0
  -29.6760  -18.7490  -22.6508 S   0  0  0  0  0  0
  -30.1504  -20.0323  -21.4573 C   0  0  0  0  0  0
  -29.0041  -23.2095  -23.5706 C   0  0  0  0  0  0
  -28.3663  -23.9777  -22.8134 O   0  5  0  0  0  0
  -29.4313  -23.4750  -24.7191 O   0  0  0  0  0  0
  -31.8488  -24.5102  -22.5113 O   0  0  0  0  0  0
  -34.3270  -22.5883  -22.3124 H   0  0  0  0  0  0
  -34.3893  -24.3298  -22.6319 H   0  0  0  0  0  0
  -34.3925  -23.7333  -20.9635 H   0  0  0  0  0  0
  -30.0610  -23.4855  -21.1396 H   0  0  0  0  0  0
  -30.3286  -22.2092  -20.0134 H   0  0  0  0  0  0
  -27.4643  -19.7265  -22.3979 H   0  0  0  0  0  0
  -27.8839  -18.3674  -25.0700 H   0  0  0  0  0  0
  -25.5809  -18.2432  -24.7160 H   0  0  0  0  0  0
  -23.4509  -18.7495  -24.5290 H   0  0  0  0  0  0
  -22.9764  -20.3830  -24.1509 H   0  0  0  0  0  0
  -21.6624  -20.4118  -21.8891 H   0  0  0  0  0  0
  -21.6753  -19.3340  -19.5479 H   0  0  0  0  0  0
  -23.6089  -17.5288  -19.2916 H   0  0  0  0  0  0
  -31.2003  -19.8888  -21.2025 H   0  0  0  0  0  0
  -29.5688  -19.8841  -20.5469 H   0  0  0  0  0  0
  1  2  1  0  0  0
  1 27  1  0  0  0
  1 28  1  0  0  0
  1 29  1  0  0  0
  2  3  1  0  0  0
  2 26  2  0  0  0
  3  4  1  0  0  0
  4  5  1  0  0  0
  4 30  1  0  0  0
  4 31  1  0  0  0
  5 22  1  0  0  0
  5  6  2  0  0  0
  6  7  1  0  0  0
  6 23  1  0  0  0
  7 10  1  0  0  0
  7  8  1  0  0  0
  8  9  1  0  0  0
  8 21  1  0  0  0
  8 32  1  0  0  0
  9 10  1  0  0  0
  9 12  1  0  0  0
  9 33  1  0  0  0
 10 11  2  0  0  0
 12 13  1  0  0  0
 12 34  1  0  0  0
 13 14  1  0  0  0
 13 20  2  0  0  0
 14 15  1  0  0  0
 14 35  1  0  0  0
 14 36  1  0  0  0
 15 19  1  0  0  0
 15 16  2  0  0  0
 16 17  1  0  0  0
 16 37  1  0  0  0
 17 18  2  0  0  0
 17 38  1  0  0  0
 18 19  1  0  0  0
 18 39  1  0  0  0
 21 22  1  0  0  0
 22 40  1  0  0  0
 22 41  1  0  0  0
 23 24  1  0  0  0
 23 25  2  0  0  0
M  CHG  1  24  -1
M  END
> <s_m_entry_id>
27740

> <s_m_entry_name>
data_maestro.33

> <s_m_Source_Path>
C:\Users\olshana1\Git\GramNeg-Accumulation\Gram Negative Permeation - OmpF

> <s_m_Source_File>
data_maestro.csv

> <i_m_Source_File_Index>
33

> <s_m_job_name>
glide-dock_Nicaido_neutral

> <s_i_glide_gridfile>
3POX-grid

> <i_i_glide_lignum>
42

> <i_i_glide_rotatable_bonds>
8

> <r_i_docking_score>
-3.80939609874674

> <r_i_glide_ligand_efficiency>
-0.146515234567182

> <r_i_glide_ligand_efficiency_sa>
-0.434050805895668

> <r_i_glide_ligand_efficiency_ln>
-0.894624174142555

> <r_i_glide_gscore>
-3.80939609874674

> <r_i_glide_lipo>
-0.0579428472177005

> <r_i_glide_hbond>
-0.801134938996019

> <r_i_glide_metal>
0

> <r_i_glide_rewards>
-0.71180085841791

> <r_i_glide_evdw>
-22.2741718292236

> <r_i_glide_ecoul>
-8.60479927062988

> <r_i_glide_erotb>
0.625287901339008

> <r_i_glide_esite>
-0.459376873398455

> <r_i_glide_emodel>
-47.2546421504191

> <r_i_glide_energy>
-30.8789710998535

> <r_i_glide_einternal>
7.26537561416626

> <i_i_glide_confnum>
50

> <i_i_glide_posenum>
44

> <r_i_glide_eff_state_penalty>
0

> <r_glide_res:A132_vdw>
-1.27586939860075

> <r_glide_res:A132_coul>
-35.091488223693

> <r_glide_res:A132_hbond>
0

> <r_glide_res:A132_dist>
2.88773450425195

> <r_glide_res:A132_Eint>
-36.3673576222937

> <r_glide_res:A117_vdw>
-4.48445208525326

> <r_glide_res:A117_coul>
9.25691921944557

> <r_glide_res:A117_hbond>
-0.16

> <r_glide_res:A117_dist>
1.82578413512699

> <r_glide_res:A117_Eint>
4.61246713419232

> <r_glide_res:A113_vdw>
-1.25078815852171

> <r_glide_res:A113_coul>
20.2749647097327

> <r_glide_res:A113_hbond>
0

> <r_glide_res:A113_dist>
2.09073753241413

> <r_glide_res:A113_Eint>
19.024176551211

> <r_glide_res:A82_vdw>
0.0583505565064062

> <r_glide_res:A82_coul>
-55.0683735055075

> <r_glide_res:A82_hbond>
-0.317927212906895

> <r_glide_res:A82_dist>
1.92960971726705

> <r_glide_res:A82_Eint>
-55.327950161908

> <r_glide_res:A42_vdw>
-0.410968080817558

> <r_glide_res:A42_coul>
-53.2622165433348

> <r_glide_res:A42_hbond>
-0.323207726089124

> <r_glide_res:A42_dist>
1.8926299480525

> <r_glide_res:A42_Eint>
-53.9963923502415

> <r_glide_res:A16_vdw>
-0.705718160326778

> <r_glide_res:A16_coul>
-32.1874218240004

> <r_glide_res:A16_hbond>
0

> <r_glide_res:A16_dist>
3.18506716903459

> <r_glide_res:A16_Eint>
-32.8931399843271

> <s_m_source_file>
ligprep_Nicaido_neutral.maegz

> <i_m_source_file_index>
33

> <i_lp_mmshare_version>
58128

> <i_f3d_flags>
0

> <s_lp_Force_Field>
S-OPLS

> <r_lp_Energy>
31.39315

> <b_lp_Chiralities_Consistent>
1

> <s_lp_Variant>
Cephalothin-1

> <s_epik_input>
W0NIM11DKD1PKU9bQ0gyXUMoPUMxQyg9TylbT0hdKVtDSDJdU1tDQEBIXShOMTIpW0NASF0oQzI9TylbTkhdQyg9TylbQ0gyXWMzW2NIXVtjSF1bY0hdczM=

> <s_epik_cmdline>
J2VwaWtfcHl0aG9uJywgJy1waHQnLCAnMC4wJywgJy1waCcsICc3LjQnLCAnLW50JywgJy1tYScsICc1MDAnLCAnLWltYWUnLCAnPGluZmlsZS5tYWU+JywgJy1vbWFlJywgJzxvdXRmaWxlLm1hZT4n

> <r_lp_tautomer_probability>
1

> <r_epik_Ionization_Penalty>
  0.0000

> <r_epik_Ionization_Penalty_Charging>
  0.0000

> <r_epik_Ionization_Penalty_Neutral>
  0.0000

> <r_epik_State_Penalty>
  0.0000

> <r_epik_Charging_Adjusted_Penalty>
6.16900125885048e-06

> <i_epik_Tot_Q>
-1

> <i_epik_Tot_abs_Q>
1

> <s_epik_Chemistry_Notes>
This compound has an ester and may undergo hydrolysis at high or low pH. This compound contains an acetal/aminal-like group ( X-CH(R)-Y where X, Y are N, S, or O) that may be acid/base labile, releasing an aldehyde.

> <s_m_subgroup_title>
glide-dock_Nicaido_neutral_pv1

> <s_m_subgroupid>
glide-dock_Nicaido_neutral_pv1

> <b_m_subgroup_collapsed>
0

$$$$
Cefoxitin
                    3D
 Schrodinger Suite 2022-2.
 44 46  0  0  1  0            999 V2000
  -35.1363  -22.9883  -25.0502 C   0  0  0  0  0  0
  -33.7952  -22.5371  -25.1935 O   0  0  0  0  0  0
  -32.8009  -23.5512  -25.3524 C   0  0  2  0  0  0
  -32.2239  -24.1225  -24.0334 C   0  0  1  0  0  0
  -31.1593  -23.1376  -24.1711 N   0  0  0  0  0  0
  -31.4100  -22.8826  -25.5149 C   0  0  0  0  0  0
  -30.7690  -22.3790  -26.4131 O   0  0  0  0  0  0
  -30.1539  -23.0649  -23.1907 C   0  0  0  0  0  0
  -28.6483  -23.1494  -23.6424 C   0  0  0  0  0  0
  -28.3656  -22.7501  -24.7952 O   0  5  0  0  0  0
  -27.8924  -23.7929  -22.8729 O   0  0  0  0  0  0
  -30.5359  -22.8704  -21.9031 C   0  0  0  0  0  0
  -32.0077  -22.7610  -21.5345 C   0  0  0  0  0  0
  -33.0506  -23.9798  -22.3952 S   0  0  0  0  0  0
  -29.5817  -22.5098  -20.7710 C   0  0  0  0  0  0
  -29.0223  -23.6610  -20.1492 O   0  0  0  0  0  0
  -28.1026  -23.5495  -19.1644 C   0  0  0  0  0  0
  -28.3689  -22.4943  -18.3153 N   0  0  0  0  0  0
  -27.1782  -24.3496  -19.0423 O   0  0  0  0  0  0
  -33.1491  -24.5641  -26.3676 N   0  0  0  0  0  0
  -32.3706  -25.4817  -26.9712 C   0  0  0  0  0  0
  -33.0523  -26.3828  -27.9996 C   0  0  0  0  0  0
  -33.5083  -25.6264  -29.2084 C   0  0  0  0  0  0
  -34.6933  -24.9597  -29.3988 C   0  0  0  0  0  0
  -34.8135  -24.3887  -30.7000 C   0  0  0  0  0  0
  -33.7253  -24.6392  -31.4909 C   0  0  0  0  0  0
  -32.5120  -25.5496  -30.6394 S   0  0  0  0  0  0
  -31.1705  -25.6300  -26.7368 O   0  0  0  0  0  0
  -35.7747  -22.1466  -24.7822 H   0  0  0  0  0  0
  -35.5202  -23.4049  -25.9810 H   0  0  0  0  0  0
  -35.2319  -23.7397  -24.2667 H   0  0  0  0  0  0
  -31.8159  -25.1277  -24.1473 H   0  0  0  0  0  0
  -32.1397  -22.9034  -20.4610 H   0  0  0  0  0  0
  -32.3547  -21.7540  -21.7663 H   0  0  0  0  0  0
  -28.7715  -21.8988  -21.1689 H   0  0  0  0  0  0
  -30.1023  -21.8816  -20.0516 H   0  0  0  0  0  0
  -29.2704  -22.0197  -18.4130 H   0  0  0  0  0  0
  -27.7548  -22.3417  -17.5273 H   0  0  0  0  0  0
  -34.1129  -24.5517  -26.6622 H   0  0  0  0  0  0
  -33.8891  -26.9048  -27.5333 H   0  0  0  0  0  0
  -32.3452  -27.1524  -28.3046 H   0  0  0  0  0  0
  -35.4778  -24.8706  -28.6611 H   0  0  0  0  0  0
  -35.6861  -23.8337  -31.0113 H   0  0  0  0  0  0
  -33.5682  -24.3469  -32.5204 H   0  0  0  0  0  0
  1  2  1  0  0  0
  1 29  1  0  0  0
  1 30  1  0  0  0
  1 31  1  0  0  0
  2  3  1  0  0  0
  3  6  1  0  0  0
  3  4  1  0  0  0
  3 20  1  0  0  0
  4 14  1  0  0  0
  4  5  1  0  0  0
  4 32  1  0  0  0
  5  6  1  0  0  0
  5  8  1  0  0  0
  6  7  2  0  0  0
  8  9  1  0  0  0
  8 12  2  0  0  0
  9 10  1  0  0  0
  9 11  2  0  0  0
 12 13  1  0  0  0
 12 15  1  0  0  0
 13 14  1  0  0  0
 13 33  1  0  0  0
 13 34  1  0  0  0
 15 16  1  0  0  0
 15 35  1  0  0  0
 15 36  1  0  0  0
 16 17  1  0  0  0
 17 18  1  0  0  0
 17 19  2  0  0  0
 18 37  1  0  0  0
 18 38  1  0  0  0
 20 21  1  0  0  0
 20 39  1  0  0  0
 21 22  1  0  0  0
 21 28  2  0  0  0
 22 23  1  0  0  0
 22 40  1  0  0  0
 22 41  1  0  0  0
 23 27  1  0  0  0
 23 24  2  0  0  0
 24 25  1  0  0  0
 24 42  1  0  0  0
 25 26  2  0  0  0
 25 43  1  0  0  0
 26 27  1  0  0  0
 26 44  1  0  0  0
M  CHG  1  10  -1
M  END
> <s_m_entry_id>
27741

> <s_m_entry_name>
data_maestro.4

> <s_m_Source_Path>
C:\Users\olshana1\Git\GramNeg-Accumulation\Gram Negative Permeation - OmpF

> <s_m_Source_File>
data_maestro.csv

> <i_m_Source_File_Index>
4

> <s_m_job_name>
glide-dock_Nicaido_neutral

> <s_i_glide_gridfile>
3POX-grid

> <i_i_glide_lignum>
4

> <i_i_glide_rotatable_bonds>
9

> <r_i_docking_score>
-3.79775606367985

> <r_i_glide_ligand_efficiency>
-0.135634145131423

> <r_i_glide_ligand_efficiency_sa>
-0.41186514885839

> <r_i_glide_ligand_efficiency_ln>
-0.87663360646062

> <r_i_glide_gscore>
-3.79775606367985

> <r_i_glide_lipo>
-0.527566688433166

> <r_i_glide_hbond>
-0.916408974867528

> <r_i_glide_metal>
0

> <r_i_glide_rewards>
1.20505301774502

> <r_i_glide_evdw>
-28.5755100250244

> <r_i_glide_ecoul>
-14.3953685760498

> <r_i_glide_erotb>
0.545654768997296

> <r_i_glide_esite>
-0.516407399462785

> <r_i_glide_emodel>
-49.5947231556121

> <r_i_glide_energy>
-42.9708786010742

> <r_i_glide_einternal>
17.9502449035645

> <i_i_glide_confnum>
85

> <i_i_glide_posenum>
271

> <r_i_glide_eff_state_penalty>
0

> <r_glide_res:A132_vdw>
-2.18039344606738

> <r_glide_res:A132_coul>
-41.2378634733288

> <r_glide_res:A132_hbond>
-0.19254662182189

> <r_glide_res:A132_dist>
2.21307997926476

> <r_glide_res:A132_Eint>
-43.6108035412181

> <r_glide_res:A117_vdw>
-0.303755639729813

> <r_glide_res:A117_coul>
24.9421568393373

> <r_glide_res:A117_hbond>
0

> <r_glide_res:A117_dist>
5.54253617347241

> <r_glide_res:A117_Eint>
24.6384011996075

> <r_glide_res:A113_vdw>
-2.33132574643635

> <r_glide_res:A113_coul>
11.2853347182237

> <r_glide_res:A113_hbond>
-0.159573895139172

> <r_glide_res:A113_dist>
1.99425307684331

> <r_glide_res:A113_Eint>
8.79443507664822

> <r_glide_res:A82_vdw>
-1.78000371018184

> <r_glide_res:A82_coul>
-50.4382720145888

> <r_glide_res:A82_hbond>
-0.2

> <r_glide_res:A82_dist>
1.8018333011902

> <r_glide_res:A82_Eint>
-52.4182757247706

> <r_glide_res:A42_vdw>
-2.41531082528966

> <r_glide_res:A42_coul>
-55.658838931917

> <r_glide_res:A42_hbond>
-0.437657670337358

> <r_glide_res:A42_dist>
2.05303822234043

> <r_glide_res:A42_Eint>
-58.511807427544

> <r_glide_res:A16_vdw>
-3.6064094337743

> <r_glide_res:A16_coul>
-37.775571407329

> <r_glide_res:A16_hbond>
-0.0862046827082797

> <r_glide_res:A16_dist>
2.15003317565867

> <r_glide_res:A16_Eint>
-41.4681855238116

> <s_m_source_file>
ligprep_Nicaido_neutral.maegz

> <i_m_source_file_index>
4

> <i_lp_mmshare_version>
58128

> <i_f3d_flags>
0

> <s_lp_Force_Field>
S-OPLS

> <r_lp_Energy>
27.517474

> <b_lp_Chiralities_Consistent>
1

> <s_lp_Variant>
Cefoxitin-1

> <s_epik_input>
czFbY0hdW2NIXVtjSF1jMVtDSDJdQyg9TylbTkhdW0NAXTIoT1tDSDNdKUMoPU8pTihbQ0BIXTIzKUMoQyg9TylbT0hdKT1DKFtDSDJdUzMpW0NIMl1PQyg9TylbTkgyXQ==

> <s_epik_cmdline>
J2VwaWtfcHl0aG9uJywgJy1waHQnLCAnMC4wJywgJy1waCcsICc3LjQnLCAnLW50JywgJy1tYScsICc1MDAnLCAnLWltYWUnLCAnPGluZmlsZS5tYWU+JywgJy1vbWFlJywgJzxvdXRmaWxlLm1hZT4n

> <r_lp_tautomer_probability>
1

> <r_epik_Ionization_Penalty>
  0.0000

> <r_epik_Ionization_Penalty_Charging>
  0.0000

> <r_epik_Ionization_Penalty_Neutral>
  0.0000

> <r_epik_State_Penalty>
  0.0000

> <r_epik_Charging_Adjusted_Penalty>
8.89144247208744e-06

> <i_epik_Tot_Q>
-1

> <i_epik_Tot_abs_Q>
1

> <s_epik_Chemistry_Notes>
This compound has an ester and may undergo hydrolysis at high or low pH. This compound contains an acetal/aminal-like group ( X-CH(R)-Y where X, Y are N, S, or O) that may be acid/base labile, releasing an aldehyde.

> <s_m_subgroup_title>
glide-dock_Nicaido_neutral_pv1

> <s_m_subgroupid>
glide-dock_Nicaido_neutral_pv1

> <b_m_subgroup_collapsed>
0

$$$$
Ceftazidime
                    3D
 Schrodinger Suite 2022-2.
 58 61  0  0  1  0            999 V2000
  -19.3832  -23.5798  -17.7243 C   0  0  0  0  0  0
  -20.6064  -24.3720  -18.2182 C   0  0  0  0  0  0
  -20.9106  -23.9803  -19.6856 C   0  0  0  0  0  0
  -20.2575  -25.8801  -18.1265 C   0  0  0  0  0  0
  -19.4340  -26.3492  -18.9468 O   0  5  0  0  0  0
  -20.7690  -26.5614  -17.2133 O   0  0  0  0  0  0
  -21.6595  -23.9710  -17.3179 O   0  0  0  0  0  0
  -22.9158  -24.4859  -17.7086 N   0  0  0  0  0  0
  -23.7818  -23.5766  -17.9407 C   0  0  0  0  0  0
  -25.1734  -23.9663  -18.4135 C   0  0  0  0  0  0
  -25.9810  -22.9366  -18.7291 N   0  0  0  0  0  0
  -27.2397  -23.0796  -19.4476 C   0  0  1  0  0  0
  -27.8878  -21.7367  -19.8434 C   0  0  2  0  0  0
  -27.8937  -22.2297  -21.2089 N   0  0  0  0  0  0
  -28.3685  -21.5001  -22.3129 C   0  0  0  0  0  0
  -28.6238  -22.3923  -23.6061 C   0  0  0  0  0  0
  -28.3190  -21.9215  -24.7260 O   0  5  0  0  0  0
  -29.0627  -23.5495  -23.4061 O   0  0  0  0  0  0
  -28.6302  -20.1649  -22.1918 C   0  0  0  0  0  0
  -29.3450  -19.3279  -23.2520 C   0  0  0  0  0  0
  -30.7810  -19.0735  -22.9507 N   0  3  0  0  0  0
  -31.4331  -18.2236  -23.7844 C   0  0  0  0  0  0
  -32.8064  -17.9506  -23.6150 C   0  0  0  0  0  0
  -33.5026  -18.5509  -22.5492 C   0  0  0  0  0  0
  -32.8103  -19.4267  -21.6931 C   0  0  0  0  0  0
  -31.4454  -19.6844  -21.9266 C   0  0  0  0  0  0
  -28.2714  -19.3434  -20.9393 C   0  0  0  0  0  0
  -27.0413  -20.1386  -19.8730 S   0  0  0  0  0  0
  -27.0355  -23.2749  -20.9672 C   0  0  0  0  0  0
  -26.3505  -23.9496  -21.7040 O   0  0  0  0  0  0
  -25.5016  -25.1488  -18.5499 O   0  0  0  0  0  0
  -23.5180  -22.1113  -17.8316 C   0  0  0  0  0  0
  -23.2286  -21.5051  -16.6304 C   0  0  0  0  0  0
  -22.9778  -19.7877  -16.8124 S   0  0  0  0  0  0
  -23.3049  -19.9577  -18.5261 C   0  0  0  0  0  0
  -23.3102  -18.8720  -19.3798 N   0  0  0  0  0  0
  -23.5497  -21.2099  -18.9053 N   0  0  0  0  0  0
  -18.5000  -23.7770  -18.3332 H   0  0  0  0  0  0
  -19.5748  -22.5069  -17.7625 H   0  0  0  0  0  0
  -19.1392  -23.8299  -16.6913 H   0  0  0  0  0  0
  -20.0425  -24.1343  -20.3277 H   0  0  0  0  0  0
  -21.7286  -24.5667  -20.1053 H   0  0  0  0  0  0
  -21.1845  -22.9277  -19.7591 H   0  0  0  0  0  0
  -25.6331  -21.9923  -18.6145 H   0  0  0  0  0  0
  -27.9492  -23.7616  -18.9763 H   0  0  0  0  0  0
  -28.9025  -21.6291  -19.4533 H   0  0  0  0  0  0
  -28.8546  -18.3583  -23.3446 H   0  0  0  0  0  0
  -29.3210  -19.7784  -24.2405 H   0  0  0  0  0  0
  -30.8425  -17.7749  -24.5707 H   0  0  0  0  0  0
  -33.3094  -17.2588  -24.2751 H   0  0  0  0  0  0
  -34.5485  -18.3352  -22.3837 H   0  0  0  0  0  0
  -33.3135  -19.8970  -20.8584 H   0  0  0  0  0  0
  -30.9024  -20.3643  -21.2897 H   0  0  0  0  0  0
  -27.8834  -18.3639  -21.2131 H   0  0  0  0  0  0
  -29.1680  -19.1589  -20.3481 H   0  0  0  0  0  0
  -23.1458  -21.9603  -15.6538 H   0  0  0  0  0  0
  -23.7449  -18.9711  -20.2860 H   0  0  0  0  0  0
  -23.3403  -17.9441  -18.9821 H   0  0  0  0  0  0
  1  2  1  0  0  0
  1 38  1  0  0  0
  1 39  1  0  0  0
  1 40  1  0  0  0
  2  3  1  0  0  0
  2  4  1  0  0  0
  2  7  1  0  0  0
  3 41  1  0  0  0
  3 42  1  0  0  0
  3 43  1  0  0  0
  4  5  1  0  0  0
  4  6  2  0  0  0
  7  8  1  0  0  0
  8  9  2  3  0  0
  9 10  1  0  0  0
  9 32  1  0  0  0
 10 11  1  0  0  0
 10 31  2  0  0  0
 11 12  1  0  0  0
 11 44  1  0  0  0
 12 29  1  0  0  0
 12 13  1  0  0  0
 12 45  1  0  0  0
 13 28  1  0  0  0
 13 14  1  0  0  0
 13 46  1  0  0  0
 14 15  1  0  0  0
 14 29  1  0  0  0
 15 16  1  0  0  0
 15 19  2  0  0  0
 16 17  1  0  0  0
 16 18  2  0  0  0
 19 20  1  0  0  0
 19 27  1  0  0  0
 20 21  1  0  0  0
 20 47  1  0  0  0
 20 48  1  0  0  0
 21 26  1  0  0  0
 21 22  2  0  0  0
 22 23  1  0  0  0
 22 49  1  0  0  0
 23 24  2  0  0  0
 23 50  1  0  0  0
 24 25  1  0  0  0
 24 51  1  0  0  0
 25 26  2  0  0  0
 25 52  1  0  0  0
 26 53  1  0  0  0
 27 28  1  0  0  0
 27 54  1  0  0  0
 27 55  1  0  0  0
 29 30  2  0  0  0
 32 37  1  0  0  0
 32 33  2  0  0  0
 33 34  1  0  0  0
 33 56  1  0  0  0
 34 35  1  0  0  0
 35 36  1  0  0  0
 35 37  2  0  0  0
 36 57  1  0  0  0
 36 58  1  0  0  0
M  CHG  3   5  -1  17  -1  21   1
M  END
> <s_m_entry_id>
27742

> <s_m_entry_name>
data_maestro.30

> <s_m_Source_Path>
C:\Users\olshana1\Git\GramNeg-Accumulation\Gram Negative Permeation - OmpF

> <s_m_Source_File>
data_maestro.csv

> <i_m_Source_File_Index>
30

> <s_m_job_name>
glide-dock_Nicaido_neutral

> <s_i_glide_gridfile>
3POX-grid

> <i_i_glide_lignum>
38

> <i_i_glide_rotatable_bonds>
10

> <r_i_docking_score>
-3.79439733306629

> <r_i_glide_ligand_efficiency>
-0.102551279272062

> <r_i_glide_ligand_efficiency_sa>
-0.3417236132933

> <r_i_glide_ligand_efficiency_ln>
-0.822915828247812

> <r_i_glide_gscore>
-3.79439733306629

> <r_i_glide_lipo>
-0.0664045124478493

> <r_i_glide_hbond>
-0.934355909117634

> <r_i_glide_metal>
0

> <r_i_glide_rewards>
1.80422560402762

> <r_i_glide_evdw>
-35.547981262207

> <r_i_glide_ecoul>
-18.324197769165

> <r_i_glide_erotb>
0.556495996469625

> <r_i_glide_esite>
-0.62832978351295

> <r_i_glide_emodel>
-72.342904070301

> <r_i_glide_energy>
-53.8721790313721

> <r_i_glide_einternal>
8.61255168914795

> <i_i_glide_confnum>
334

> <i_i_glide_posenum>
281

> <r_i_glide_eff_state_penalty>
0

> <r_glide_res:A132_vdw>
-1.94750491144695

> <r_glide_res:A132_coul>
-36.7388888051598

> <r_glide_res:A132_hbond>
-0.137870043531758

> <r_glide_res:A132_dist>
1.98316513612241

> <r_glide_res:A132_Eint>
-38.8242637601385

> <r_glide_res:A117_vdw>
-2.40782344386555

> <r_glide_res:A117_coul>
8.14622188747791

> <r_glide_res:A117_hbond>
0

> <r_glide_res:A117_dist>
2.19209028919351

> <r_glide_res:A117_Eint>
5.73839844361236

> <r_glide_res:A113_vdw>
-3.8244958894668

> <r_glide_res:A113_coul>
-4.6858042429025

> <r_glide_res:A113_hbond>
0

> <r_glide_res:A113_dist>
2.33487589271508

> <r_glide_res:A113_Eint>
-8.51030013236929

> <r_glide_res:A82_vdw>
-1.64697532058676

> <r_glide_res:A82_coul>
-41.6815040149369

> <r_glide_res:A82_hbond>
-0.127267410928212

> <r_glide_res:A82_dist>
2.16739268705531

> <r_glide_res:A82_Eint>
-43.4557467464519

> <r_glide_res:A42_vdw>
-1.42035690684136

> <r_glide_res:A42_coul>
-35.7108196572358

> <r_glide_res:A42_hbond>
-0.0900010967659449

> <r_glide_res:A42_dist>
2.31999780646811

> <r_glide_res:A42_Eint>
-37.2211776608432

> <r_glide_res:A16_vdw>
-0.309234699857236

> <r_glide_res:A16_coul>
-13.1921992899261

> <r_glide_res:A16_hbond>
0

> <r_glide_res:A16_dist>
3.99875110195555

> <r_glide_res:A16_Eint>
-13.5014339897833

> <s_m_source_file>
ligprep_Nicaido_neutral.maegz

> <i_m_source_file_index>
30

> <i_lp_mmshare_version>
58128

> <i_f3d_flags>
0

> <s_lp_Force_Field>
S-OPLS

> <r_lp_Energy>
86.633473

> <b_lp_Chiralities_Consistent>
1

> <s_lp_Variant>
Ceftazidime-1

> <s_epik_input>
W09IXUMoPU8pQyhbQ0gzXSkoW0NIM10pTy9OPUMoYzFbY0hdc2MobjEpW05IMl0pL0MoPU8pW05IXVtDQEBIXTJDKD1PKU4oW0NAQEhdMjMpQyhDKD1PKVtPSF0pPUMoW0NIMl1TMylbQ0gyXVtuK100W2NIXVtjSF1bY0hdW2NIXVtjSF00

> <s_epik_cmdline>
J2VwaWtfcHl0aG9uJywgJy1waHQnLCAnMC4wJywgJy1waCcsICc3LjQnLCAnLW50JywgJy1tYScsICc1MDAnLCAnLWltYWUnLCAnPGluZmlsZS5tYWU+JywgJy1vbWFlJywgJzxvdXRmaWxlLm1hZT4n

> <r_lp_tautomer_probability>
1

> <r_epik_Ionization_Penalty>
  0.0005

> <r_epik_Ionization_Penalty_Charging>
  0.0001

> <r_epik_Ionization_Penalty_Neutral>
  0.0005

> <r_epik_State_Penalty>
  0.0000

> <r_epik_Charging_Adjusted_Penalty>
5.84857251211915e-05

> <i_epik_Tot_Q>
-1

> <i_epik_Tot_abs_Q>
3

> <s_epik_Chemistry_Notes>
This compound has an imine and may undergo hydrolysis. This compound contains an acetal/aminal-like group ( X-CH(R)-Y where X, Y are N, S, or O) that may be acid/base labile, releasing an aldehyde.

> <s_m_subgroup_title>
glide-dock_Nicaido_neutral_pv1

> <s_m_subgroupid>
glide-dock_Nicaido_neutral_pv1

> <b_m_subgroup_collapsed>
0

$$$$
Piperacillin
                    3D
 Schrodinger Suite 2022-2.
 62 65  0  0  1  0            999 V2000
  -28.2777  -25.7241  -17.6821 C   0  0  0  0  0  0
  -28.8958  -24.3179  -17.6133 C   0  0  0  0  0  0
  -28.7688  -23.5614  -18.8626 N   0  0  0  0  0  0
  -27.9194  -22.3637  -18.8074 C   0  0  0  0  0  0
  -28.2137  -21.3873  -19.9641 C   0  0  0  0  0  0
  -28.3205  -22.1020  -21.2482 N   0  0  0  0  0  0
  -29.0000  -23.2820  -21.3072 C   0  0  0  0  0  0
  -29.4879  -23.8900  -19.9604 C   0  0  0  0  0  0
  -30.3694  -24.7497  -19.9797 O   0  0  0  0  0  0
  -29.1892  -23.9490  -22.3357 O   0  0  0  0  0  0
  -27.5500  -21.6973  -22.2818 C   0  0  0  0  0  0
  -27.7764  -20.4085  -22.6195 N   0  0  0  0  0  0
  -27.4656  -19.6537  -23.8520 C   0  0  2  0  0  0
  -28.7630  -19.2824  -24.5464 C   0  0  0  0  0  0
  -28.7520  -18.3526  -25.6133 C   0  0  0  0  0  0
  -29.9221  -17.9493  -26.2817 C   0  0  0  0  0  0
  -31.1639  -18.4754  -25.8930 C   0  0  0  0  0  0
  -31.2169  -19.4106  -24.8460 C   0  0  0  0  0  0
  -30.0356  -19.8071  -24.1885 C   0  0  0  0  0  0
  -26.6339  -20.4206  -24.9054 C   0  0  0  0  0  0
  -25.3161  -20.1650  -24.9626 N   0  0  0  0  0  0
  -24.3610  -20.9467  -25.7513 C   0  0  1  0  0  0
  -22.8953  -20.5499  -25.4930 C   0  0  2  0  0  0
  -22.6915  -21.8646  -24.9167 N   0  0  0  0  0  0
  -23.9687  -22.2949  -25.1131 C   0  0  0  0  0  0
  -24.5052  -23.3405  -24.8134 O   0  0  0  0  0  0
  -21.6987  -22.1899  -23.9250 C   0  0  2  0  0  0
  -21.5692  -20.8682  -23.0884 C   0  0  0  0  0  0
  -22.4535  -20.9757  -21.8313 C   0  0  0  0  0  0
  -22.2585  -19.5215  -24.1317 S   0  0  0  0  0  0
  -20.1342  -20.5087  -22.6521 C   0  0  0  0  0  0
  -20.4570  -22.7482  -24.6403 C   0  0  0  0  0  0
  -20.1880  -23.9495  -24.4126 O   0  5  0  0  0  0
  -19.8295  -22.0053  -25.4259 O   0  0  0  0  0  0
  -27.1739  -21.2715  -25.6132 O   0  0  0  0  0  0
  -26.8173  -22.4748  -22.9005 O   0  0  0  0  0  0
  -28.3685  -26.2219  -16.7163 H   0  0  0  0  0  0
  -28.7689  -26.3606  -18.4129 H   0  0  0  0  0  0
  -27.2178  -25.6761  -17.9310 H   0  0  0  0  0  0
  -28.3912  -23.7843  -16.8135 H   0  0  0  0  0  0
  -29.9468  -24.3791  -17.3294 H   0  0  0  0  0  0
  -28.0623  -21.8373  -17.8618 H   0  0  0  0  0  0
  -26.8757  -22.6789  -18.8395 H   0  0  0  0  0  0
  -27.4491  -20.6067  -19.9724 H   0  0  0  0  0  0
  -29.1606  -20.8776  -19.7841 H   0  0  0  0  0  0
  -28.3741  -19.9001  -21.9833 H   0  0  0  0  0  0
  -26.9239  -18.7497  -23.5727 H   0  0  0  0  0  0
  -27.8060  -17.9497  -25.9291 H   0  0  0  0  0  0
  -29.8614  -17.2198  -27.0774 H   0  0  0  0  0  0
  -32.0697  -18.1556  -26.3868 H   0  0  0  0  0  0
  -32.1679  -19.8176  -24.5345 H   0  0  0  0  0  0
  -30.1375  -20.5244  -23.3886 H   0  0  0  0  0  0
  -24.9384  -19.4100  -24.4034 H   0  0  0  0  0  0
  -24.5967  -20.9930  -26.8135 H   0  0  0  0  0  0
  -22.3206  -20.3946  -26.4080 H   0  0  0  0  0  0
  -22.0848  -22.9890  -23.2893 H   0  0  0  0  0  0
  -22.1018  -21.7631  -21.1642 H   0  0  0  0  0  0
  -23.4890  -21.1986  -22.0918 H   0  0  0  0  0  0
  -22.4546  -20.0423  -21.2669 H   0  0  0  0  0  0
  -19.6758  -21.3199  -22.0857 H   0  0  0  0  0  0
  -19.4923  -20.2895  -23.5056 H   0  0  0  0  0  0
  -20.1277  -19.6201  -22.0202 H   0  0  0  0  0  0
  1  2  1  0  0  0
  1 37  1  0  0  0
  1 38  1  0  0  0
  1 39  1  0  0  0
  2  3  1  0  0  0
  2 40  1  0  0  0
  2 41  1  0  0  0
  3  8  1  0  0  0
  3  4  1  0  0  0
  4  5  1  0  0  0
  4 42  1  0  0  0
  4 43  1  0  0  0
  5  6  1  0  0  0
  5 44  1  0  0  0
  5 45  1  0  0  0
  6  7  1  0  0  0
  6 11  1  0  0  0
  7  8  1  0  0  0
  7 10  2  0  0  0
  8  9  2  0  0  0
 11 12  1  0  0  0
 11 36  2  0  0  0
 12 13  1  0  0  0
 12 46  1  0  0  0
 13 14  1  0  0  0
 13 20  1  0  0  0
 13 47  1  0  0  0
 14 19  1  0  0  0
 14 15  2  0  0  0
 15 16  1  0  0  0
 15 48  1  0  0  0
 16 17  2  0  0  0
 16 49  1  0  0  0
 17 18  1  0  0  0
 17 50  1  0  0  0
 18 19  2  0  0  0
 18 51  1  0  0  0
 19 52  1  0  0  0
 20 21  1  0  0  0
 20 35  2  0  0  0
 21 22  1  0  0  0
 21 53  1  0  0  0
 22 25  1  0  0  0
 22 23  1  0  0  0
 22 54  1  0  0  0
 23 30  1  0  0  0
 23 24  1  0  0  0
 23 55  1  0  0  0
 24 25  1  0  0  0
 24 27  1  0  0  0
 25 26  2  0  0  0
 27 28  1  0  0  0
 27 32  1  0  0  0
 27 56  1  0  0  0
 28 29  1  0  0  0
 28 30  1  0  0  0
 28 31  1  0  0  0
 29 57  1  0  0  0
 29 58  1  0  0  0
 29 59  1  0  0  0
 31 60  1  0  0  0
 31 61  1  0  0  0
 31 62  1  0  0  0
 32 33  1  0  0  0
 32 34  2  0  0  0
M  CHG  1  33  -1
M  END
> <s_m_entry_id>
27743

> <s_m_entry_name>
data_maestro.11

> <s_m_Source_Path>
C:\Users\olshana1\Git\GramNeg-Accumulation\Gram Negative Permeation - OmpF

> <s_m_Source_File>
data_maestro.csv

> <i_m_Source_File_Index>
11

> <s_m_job_name>
glide-dock_Nicaido_neutral

> <s_i_glide_gridfile>
3POX-grid

> <i_i_glide_lignum>
15

> <i_i_glide_rotatable_bonds>
9

> <r_i_docking_score>
-3.78916325484251

> <r_i_glide_ligand_efficiency>
-0.105254534856736

> <r_i_glide_ligand_efficiency_sa>
-0.347542816298045

> <r_i_glide_ligand_efficiency_ln>
-0.826693050845958

> <r_i_glide_gscore>
-3.78916325484251

> <r_i_glide_lipo>
0

> <r_i_glide_hbond>
-0.326511129595965

> <r_i_glide_metal>
0

> <r_i_glide_rewards>
0.00805882856667338

> <r_i_glide_evdw>
-34.0131225585938

> <r_i_glide_ecoul>
-9.40660858154297

> <r_i_glide_erotb>
0.461572583116075

> <r_i_glide_esite>
-0.820636121768156

> <r_i_glide_emodel>
-57.5053707194271

> <r_i_glide_energy>
-43.4197311401367

> <r_i_glide_einternal>
13.5265121459961

> <i_i_glide_confnum>
219

> <i_i_glide_posenum>
88

> <r_i_glide_eff_state_penalty>
0

> <r_glide_res:A132_vdw>
-1.2510472024426

> <r_glide_res:A132_coul>
-22.3145257151083

> <r_glide_res:A132_hbond>
-0.0112198289457073

> <r_glide_res:A132_dist>
2.25304839291079

> <r_glide_res:A132_Eint>
-23.5767927464967

> <r_glide_res:A117_vdw>
-5.18515662191673

> <r_glide_res:A117_coul>
12.3890684970483

> <r_glide_res:A117_hbond>
0

> <r_glide_res:A117_dist>
2.15685492800813

> <r_glide_res:A117_Eint>
7.20391187513155

> <r_glide_res:A113_vdw>
-2.83190509802994

> <r_glide_res:A113_coul>
4.86574653059914

> <r_glide_res:A113_hbond>
0

> <r_glide_res:A113_dist>
2.29106363928789

> <r_glide_res:A113_Eint>
2.0338414325692

> <r_glide_res:A82_vdw>
-2.2347722822284

> <r_glide_res:A82_coul>
-34.8584051923123

> <r_glide_res:A82_hbond>
-0.151657494373519

> <r_glide_res:A82_dist>
2.1208562640662

> <r_glide_res:A82_Eint>
-37.2448349689142

> <r_glide_res:A42_vdw>
0.0227745570880909

> <r_glide_res:A42_coul>
-36.270970645591

> <r_glide_res:A42_hbond>
-0.159066472961536

> <r_glide_res:A42_dist>
1.84749554980821

> <r_glide_res:A42_Eint>
-36.4072625614644

> <r_glide_res:A16_vdw>
-0.927529769552513

> <r_glide_res:A16_coul>
-20.7338837265565

> <r_glide_res:A16_hbond>
0

> <r_glide_res:A16_dist>
3.59555102050061

> <r_glide_res:A16_Eint>
-21.6614134961091

> <s_m_source_file>
ligprep_Nicaido_neutral.maegz

> <i_m_source_file_index>
11

> <i_lp_mmshare_version>
58128

> <i_f3d_flags>
0

> <s_lp_Force_Field>
S-OPLS

> <r_lp_Energy>
67.572455

> <b_lp_Chiralities_Consistent>
1

> <s_lp_Variant>
Piperacillin-1

> <s_epik_input>
W0NIM11bQ0gyXU4xW0NIMl1bQ0gyXU4oQyg9TylDMT1PKUMoPU8pW05IXVtDQEhdKGMyW2NIXVtjSF1bY0hdW2NIXVtjSF0yKUMoPU8pW05IXVtDQEBIXTNDKD1PKU4oW0NAQEhdMzQpW0NASF0oQyhTNCkoW0NIM10pW0NIM10pQyg9TylbT0hd

> <s_epik_cmdline>
J2VwaWtfcHl0aG9uJywgJy1waHQnLCAnMC4wJywgJy1waCcsICc3LjQnLCAnLW50JywgJy1tYScsICc1MDAnLCAnLWltYWUnLCAnPGluZmlsZS5tYWU+JywgJy1vbWFlJywgJzxvdXRmaWxlLm1hZT4n

> <r_lp_tautomer_probability>
1

> <r_epik_Ionization_Penalty>
  0.0049

> <r_epik_Ionization_Penalty_Charging>
  0.0000

> <r_epik_Ionization_Penalty_Neutral>
  0.0049

> <r_epik_State_Penalty>
  0.0000

> <r_epik_Charging_Adjusted_Penalty>
1.13204004886318e-05

> <i_epik_Tot_Q>
-1

> <i_epik_Tot_abs_Q>
1

> <s_epik_Chemistry_Notes>
This compound contains an acetal/aminal-like group ( X-CH(R)-Y where X, Y are N, S, or O) that may be acid/base labile, releasing an aldehyde.

> <s_m_subgroup_title>
glide-dock_Nicaido_neutral_pv1

> <s_m_subgroupid>
glide-dock_Nicaido_neutral_pv1

> <b_m_subgroup_collapsed>
0

$$$$
Cefmetazole
                    3D
 Schrodinger Suite 2022-2.
 46 48  0  0  1  0            999 V2000
  -33.6265  -21.5871  -20.8133 C   0  0  0  0  0  0
  -33.0069  -22.5559  -21.6964 N   0  0  0  0  0  0
  -31.9272  -22.4780  -22.4854 C   0  0  0  0  0  0
  -30.9043  -21.0540  -22.6267 S   0  0  0  0  0  0
  -29.6958  -21.5491  -21.3683 C   0  0  0  0  0  0
  -28.2773  -21.0969  -21.6873 C   0  0  0  0  0  0
  -27.4410  -21.8160  -22.4795 C   0  0  0  0  0  0
  -26.1355  -21.4001  -22.7852 N   0  0  0  0  0  0
  -25.6860  -20.0251  -22.6460 C   0  0  2  0  0  0
  -24.2767  -20.5249  -23.0522 C   0  0  1  0  0  0
  -23.3604  -20.7028  -21.9701 O   0  0  0  0  0  0
  -22.6630  -19.5373  -21.5513 C   0  0  0  0  0  0
  -24.9730  -21.8838  -23.3560 C   0  0  0  0  0  0
  -24.6910  -22.9522  -23.8564 O   0  0  0  0  0  0
  -23.6876  -19.8019  -24.1941 N   0  0  0  0  0  0
  -23.8781  -19.9629  -25.5169 C   0  0  0  0  0  0
  -22.8966  -19.2304  -26.4282 C   0  0  0  0  0  0
  -21.6934  -20.3492  -27.2131 S   0  0  0  0  0  0
  -20.8012  -21.0276  -25.7827 C   0  0  0  0  0  0
  -21.2447  -22.3980  -25.4672 C   0  0  0  0  0  0
  -21.5846  -23.4787  -25.2139 N   0  0  0  0  0  0
  -24.7437  -20.6830  -26.0139 O   0  0  0  0  0  0
  -26.1062  -19.4873  -20.9566 S   0  0  0  0  0  0
  -27.8965  -19.7593  -21.0526 C   0  0  0  0  0  0
  -27.8756  -23.1495  -23.1588 C   0  0  0  0  0  0
  -27.9795  -23.1379  -24.4084 O   0  5  0  0  0  0
  -27.9657  -24.1544  -22.4135 O   0  0  0  0  0  0
  -31.7239  -23.6277  -23.1204 N   0  0  0  0  0  0
  -32.7493  -24.4376  -22.6707 N   0  0  0  0  0  0
  -33.5144  -23.8060  -21.8256 N   0  0  0  0  0  0
  -33.1689  -21.6492  -19.8261 H   0  0  0  0  0  0
  -33.4929  -20.5771  -21.2049 H   0  0  0  0  0  0
  -34.6939  -21.7905  -20.7175 H   0  0  0  0  0  0
  -29.7212  -22.6314  -21.2350 H   0  0  0  0  0  0
  -30.0162  -21.1489  -20.4106 H   0  0  0  0  0  0
  -26.1542  -19.3819  -23.3951 H   0  0  0  0  0  0
  -22.1208  -19.7547  -20.6319 H   0  0  0  0  0  0
  -21.9319  -19.2197  -22.2942 H   0  0  0  0  0  0
  -23.3375  -18.7054  -21.3516 H   0  0  0  0  0  0
  -23.0063  -19.1030  -23.9391 H   0  0  0  0  0  0
  -22.3672  -18.4477  -25.8815 H   0  0  0  0  0  0
  -23.4645  -18.7313  -27.2126 H   0  0  0  0  0  0
  -20.9193  -20.3889  -24.9075 H   0  0  0  0  0  0
  -19.7386  -21.0754  -26.0188 H   0  0  0  0  0  0
  -28.3572  -18.9546  -21.6255 H   0  0  0  0  0  0
  -28.2909  -19.6947  -20.0385 H   0  0  0  0  0  0
  1  2  1  0  0  0
  1 31  1  0  0  0
  1 32  1  0  0  0
  1 33  1  0  0  0
  2 30  1  0  0  0
  2  3  1  0  0  0
  3  4  1  0  0  0
  3 28  2  0  0  0
  4  5  1  0  0  0
  5  6  1  0  0  0
  5 34  1  0  0  0
  5 35  1  0  0  0
  6 24  1  0  0  0
  6  7  2  0  0  0
  7  8  1  0  0  0
  7 25  1  0  0  0
  8 13  1  0  0  0
  8  9  1  0  0  0
  9 10  1  0  0  0
  9 23  1  0  0  0
  9 36  1  0  0  0
 10 11  1  0  0  0
 10 13  1  0  0  0
 10 15  1  0  0  0
 11 12  1  0  0  0
 12 37  1  0  0  0
 12 38  1  0  0  0
 12 39  1  0  0  0
 13 14  2  0  0  0
 15 16  1  0  0  0
 15 40  1  0  0  0
 16 17  1  0  0  0
 16 22  2  0  0  0
 17 18  1  0  0  0
 17 41  1  0  0  0
 17 42  1  0  0  0
 18 19  1  0  0  0
 19 20  1  0  0  0
 19 43  1  0  0  0
 19 44  1  0  0  0
 20 21  3  0  0  0
 23 24  1  0  0  0
 24 45  1  0  0  0
 24 46  1  0  0  0
 25 26  1  0  0  0
 25 27  2  0  0  0
 28 29  1  0  0  0
 29 30  2  0  0  0
M  CHG  1  26  -1
M  END
> <s_m_entry_id>
27744

> <s_m_entry_name>
data_maestro.3

> <s_m_Source_Path>
C:\Users\olshana1\Git\GramNeg-Accumulation\Gram Negative Permeation - OmpF

> <s_m_Source_File>
data_maestro.csv

> <i_m_Source_File_Index>
3

> <s_m_job_name>
glide-dock_Nicaido_neutral

> <s_i_glide_gridfile>
3POX-grid

> <i_i_glide_lignum>
3

> <i_i_glide_rotatable_bonds>
10

> <r_i_docking_score>
-3.787010950047

> <r_i_glide_ligand_efficiency>
-0.1262336983349

> <r_i_glide_ligand_efficiency_sa>
-0.392237450368283

> <r_i_glide_ligand_efficiency_ln>
-0.86045015063987

> <r_i_glide_gscore>
-3.787010950047

> <r_i_glide_lipo>
-0.379551774653707

> <r_i_glide_hbond>
-0.409806696017999

> <r_i_glide_metal>
0

> <r_i_glide_rewards>
-0.197615654796148

> <r_i_glide_evdw>
-31.7957344055176

> <r_i_glide_ecoul>
-8.20414447784424

> <r_i_glide_erotb>
0.638850535935238

> <r_i_glide_esite>
-0.618478968561872

> <r_i_glide_emodel>
-52.8960962139239

> <r_i_glide_energy>
-39.9998788833618

> <r_i_glide_einternal>
15.7479095458984

> <i_i_glide_confnum>
147

> <i_i_glide_posenum>
218

> <r_i_glide_eff_state_penalty>
0

> <r_glide_res:A132_vdw>
-1.39797161439516

> <r_glide_res:A132_coul>
-41.256117381878

> <r_glide_res:A132_hbond>
-0.00413371287254113

> <r_glide_res:A132_dist>
2.47439099251379

> <r_glide_res:A132_Eint>
-42.6582227091457

> <r_glide_res:A117_vdw>
-4.13694848109351

> <r_glide_res:A117_coul>
11.6854817448896

> <r_glide_res:A117_hbond>
0

> <r_glide_res:A117_dist>
2.63244276455388

> <r_glide_res:A117_Eint>
7.54853326379614

> <r_glide_res:A113_vdw>
-4.0920584279854

> <r_glide_res:A113_coul>
15.6649585446021

> <r_glide_res:A113_hbond>
0

> <r_glide_res:A113_dist>
2.33395849104156

> <r_glide_res:A113_Eint>
11.5729001166167

> <r_glide_res:A82_vdw>
-0.251078999080843

> <r_glide_res:A82_coul>
-57.6162981484224

> <r_glide_res:A82_hbond>
-0.246364490494837

> <r_glide_res:A82_dist>
1.82893838808171

> <r_glide_res:A82_Eint>
-58.1137416379981

> <r_glide_res:A42_vdw>
-1.71787282514145

> <r_glide_res:A42_coul>
-52.4571702642239

> <r_glide_res:A42_hbond>
-0.159308492650622

> <r_glide_res:A42_dist>
2.08340112039974

> <r_glide_res:A42_Eint>
-54.334351582016

> <r_glide_res:A16_vdw>
-0.316282293153037

> <r_glide_res:A16_coul>
-27.5790083220213

> <r_glide_res:A16_hbond>
0

> <r_glide_res:A16_dist>
4.79919699774913

> <r_glide_res:A16_Eint>
-27.8952906151743

> <s_m_source_file>
ligprep_Nicaido_neutral.maegz

> <i_m_source_file_index>
3

> <i_lp_mmshare_version>
58128

> <i_f3d_flags>
0

> <s_lp_Force_Field>
S-OPLS

> <r_lp_Energy>
32.161431

> <b_lp_Chiralities_Consistent>
1

> <s_lp_Variant>
Cefmetazole-1

> <s_epik_input>
bjFubmMobjFbQ0gzXSlTW0NIMl1DKD1DMkMoPU8pW09IXSlbQ0gyXVNbQ0BIXShOMjMpW0NAXShDMz1PKShPW0NIM10pW05IXUMoPU8pW0NIMl1TW0NIMl1DI04=

> <s_epik_cmdline>
J2VwaWtfcHl0aG9uJywgJy1waHQnLCAnMC4wJywgJy1waCcsICc3LjQnLCAnLW50JywgJy1tYScsICc1MDAnLCAnLWltYWUnLCAnPGluZmlsZS5tYWU+JywgJy1vbWFlJywgJzxvdXRmaWxlLm1hZT4n

> <r_lp_tautomer_probability>
1

> <r_epik_Ionization_Penalty>
  0.0000

> <r_epik_Ionization_Penalty_Charging>
  0.0000

> <r_epik_Ionization_Penalty_Neutral>
  0.0000

> <r_epik_State_Penalty>
  0.0000

> <r_epik_Charging_Adjusted_Penalty>
8.27330724987756e-06

> <i_epik_Tot_Q>
-1

> <i_epik_Tot_abs_Q>
1

> <s_epik_Chemistry_Notes>
This compound contains an acetal/aminal-like group ( X-CH(R)-Y where X, Y are N, S, or O) that may be acid/base labile, releasing an aldehyde.

> <s_m_subgroup_title>
glide-dock_Nicaido_neutral_pv1

> <s_m_subgroupid>
glide-dock_Nicaido_neutral_pv1

> <b_m_subgroup_collapsed>
0

$$$$
Aztreonam
                    3D
 Schrodinger Suite 2022-2.
 43 44  0  0  1  0            999 V2000
  -31.1553  -21.2291  -22.3531 C   0  0  0  0  0  0
  -30.5150  -20.6082  -23.6003 C   0  0  1  0  0  0
  -28.9786  -20.4569  -23.7107 C   0  0  2  0  0  0
  -29.1141  -21.2541  -25.0304 C   0  0  0  0  0  0
  -30.4273  -21.5254  -24.7334 N   0  0  0  0  0  0
  -31.7333  -22.0622  -25.6143 S   0  0  0  0  0  0
  -32.7252  -22.5093  -24.6280 O   0  0  0  0  0  0
  -31.1690  -23.1495  -26.4305 O   0  5  0  0  0  0
  -32.1315  -20.8930  -26.4134 O   0  0  0  0  0  0
  -28.4216  -21.5495  -25.9817 O   0  0  0  0  0  0
  -28.2540  -21.2156  -22.6915 N   0  0  0  0  0  0
  -26.9597  -21.5584  -22.8124 C   0  0  0  0  0  0
  -26.5339  -22.6939  -21.8863 C   0  0  0  0  0  0
  -27.1927  -22.7139  -20.5580 C   0  0  0  0  0  0
  -27.1332  -21.6420  -19.6961 C   0  0  0  0  0  0
  -27.9678  -21.9594  -18.2017 S   0  0  0  0  0  0
  -28.3807  -23.5492  -18.8169 C   0  0  0  0  0  0
  -29.1689  -24.4235  -18.0966 N   0  0  0  0  0  0
  -27.8960  -23.8070  -20.0322 N   0  0  0  0  0  0
  -25.7068  -23.6232  -22.1787 N   0  0  0  0  0  0
  -25.2076  -23.5471  -23.4970 O   0  0  0  0  0  0
  -23.8910  -24.1035  -23.6040 C   0  0  0  0  0  0
  -23.9689  -25.6453  -23.7283 C   0  0  0  0  0  0
  -24.3689  -26.1280  -24.8134 O   0  5  0  0  0  0
  -23.5689  -26.3491  -22.7728 O   0  0  0  0  0  0
  -23.3477  -23.5185  -24.9251 C   0  0  0  0  0  0
  -22.9469  -23.6666  -22.4511 C   0  0  0  0  0  0
  -26.2103  -21.0706  -23.6595 O   0  0  0  0  0  0
  -30.9511  -20.6271  -21.4658 H   0  0  0  0  0  0
  -32.2393  -21.2876  -22.4468 H   0  0  0  0  0  0
  -30.7894  -22.2375  -22.1575 H   0  0  0  0  0  0
  -31.0137  -19.6877  -23.9128 H   0  0  0  0  0  0
  -28.6561  -19.4193  -23.8135 H   0  0  0  0  0  0
  -28.8061  -21.6096  -21.9425 H   0  0  0  0  0  0
  -26.6566  -20.6821  -19.8397 H   0  0  0  0  0  0
  -29.7623  -25.0301  -18.6388 H   0  0  0  0  0  0
  -29.6813  -23.9884  -17.3413 H   0  0  0  0  0  0
  -22.3373  -23.8692  -25.1355 H   0  0  0  0  0  0
  -23.9692  -23.7800  -25.7809 H   0  0  0  0  0  0
  -23.3127  -22.4296  -24.8792 H   0  0  0  0  0  0
  -21.9212  -23.9843  -22.6396 H   0  0  0  0  0  0
  -22.9382  -22.5810  -22.3474 H   0  0  0  0  0  0
  -23.2364  -24.0848  -21.4863 H   0  0  0  0  0  0
  1  2  1  0  0  0
  1 29  1  0  0  0
  1 30  1  0  0  0
  1 31  1  0  0  0
  2  5  1  0  0  0
  2  3  1  0  0  0
  2 32  1  0  0  0
  3  4  1  0  0  0
  3 11  1  0  0  0
  3 33  1  0  0  0
  4  5  1  0  0  0
  4 10  2  0  0  0
  5  6  1  0  0  0
  6  7  2  0  0  0
  6  8  1  0  0  0
  6  9  2  0  0  0
 11 12  1  0  0  0
 11 34  1  0  0  0
 12 13  1  0  0  0
 12 28  2  0  0  0
 13 14  1  0  0  0
 13 20  2  3  0  0
 14 19  1  0  0  0
 14 15  2  0  0  0
 15 16  1  0  0  0
 15 35  1  0  0  0
 16 17  1  0  0  0
 17 18  1  0  0  0
 17 19  2  0  0  0
 18 36  1  0  0  0
 18 37  1  0  0  0
 20 21  1  0  0  0
 21 22  1  0  0  0
 22 23  1  0  0  0
 22 26  1  0  0  0
 22 27  1  0  0  0
 23 24  1  0  0  0
 23 25  2  0  0  0
 26 38  1  0  0  0
 26 39  1  0  0  0
 26 40  1  0  0  0
 27 41  1  0  0  0
 27 42  1  0  0  0
 27 43  1  0  0  0
M  CHG  2   8  -1  24  -1
M  END
> <s_m_entry_id>
27745

> <s_m_entry_name>
data_maestro.21

> <s_m_Source_Path>
C:\Users\olshana1\Git\GramNeg-Accumulation\Gram Negative Permeation - OmpF

> <s_m_Source_File>
data_maestro.csv

> <i_m_Source_File_Index>
21

> <s_m_job_name>
glide-dock_Nicaido_neutral

> <s_i_glide_gridfile>
3POX-grid

> <i_i_glide_lignum>
27

> <i_i_glide_rotatable_bonds>
8

> <r_i_docking_score>
-3.77718695921966

> <r_i_glide_ligand_efficiency>
-0.134899534257845

> <r_i_glide_ligand_efficiency_sa>
-0.40963443758354

> <r_i_glide_ligand_efficiency_ln>
-0.871885653216057

> <r_i_glide_gscore>
-3.77718695921966

> <r_i_glide_lipo>
0

> <r_i_glide_hbond>
-0.594687085960363

> <r_i_glide_metal>
0

> <r_i_glide_rewards>
-0.280052977956339

> <r_i_glide_evdw>
-23.4381408691406

> <r_i_glide_ecoul>
-9.96413135528564

> <r_i_glide_erotb>
0.635830109179744

> <r_i_glide_esite>
-0.871750257732821

> <r_i_glide_emodel>
-53.9809325925166

> <r_i_glide_energy>
-33.4022722244263

> <r_i_glide_einternal>
4.07363796234131

> <i_i_glide_confnum>
17

> <i_i_glide_posenum>
135

> <r_i_glide_eff_state_penalty>
0

> <r_glide_res:A132_vdw>
-1.86482567603577

> <r_glide_res:A132_coul>
-62.853645828375

> <r_glide_res:A132_hbond>
-0.194954218044566

> <r_glide_res:A132_dist>
1.97623914904743

> <r_glide_res:A132_Eint>
-64.9134257224553

> <r_glide_res:A117_vdw>
-1.59532682353233

> <r_glide_res:A117_coul>
38.9194489586858

> <r_glide_res:A117_hbond>
0

> <r_glide_res:A117_dist>
3.26012726499019

> <r_glide_res:A117_Eint>
37.3241221351534

> <r_glide_res:A113_vdw>
-2.79384492028359

> <r_glide_res:A113_coul>
27.7336709327091

> <r_glide_res:A113_hbond>
0

> <r_glide_res:A113_dist>
2.65613643730169

> <r_glide_res:A113_Eint>
24.9398260124255

> <r_glide_res:A82_vdw>
-1.68821908876826

> <r_glide_res:A82_coul>
-74.789619743521

> <r_glide_res:A82_hbond>
-0.2

> <r_glide_res:A82_dist>
1.82233353956515

> <r_glide_res:A82_Eint>
-76.6778388322893

> <r_glide_res:A42_vdw>
-2.45351501686904

> <r_glide_res:A42_coul>
-73.7708140062211

> <r_glide_res:A42_hbond>
-0.199732867915797

> <r_glide_res:A42_dist>
2.01794473999077

> <r_glide_res:A42_Eint>
-76.424061891006

> <r_glide_res:A16_vdw>
-1.41525549627581

> <r_glide_res:A16_coul>
-66.1393435232216

> <r_glide_res:A16_hbond>
0

> <r_glide_res:A16_dist>
2.45807535595713

> <r_glide_res:A16_Eint>
-67.5545990194974

> <s_m_source_file>
ligprep_Nicaido_neutral.maegz

> <i_m_source_file_index>
21

> <i_lp_mmshare_version>
58128

> <i_f3d_flags>
0

> <s_lp_Force_Field>
S-OPLS

> <r_lp_Energy>
50.237147

> <b_lp_Chiralities_Consistent>
1

> <s_lp_Variant>
Aztreonam-2

> <s_epik_input>
Tz1TKD1PKShbT0hdKU4xQyg9TylbQ0BASF0oW0NAQEhdMVtDSDNdKVtOSF1DKD1PKS9DKGMyW2NIXXNjKG4yKVtOSDJdKT1OL09DKFtDSDNdKShbQ0gzXSlDKD1PKVtPSF0=

> <s_epik_cmdline>
J2VwaWtfcHl0aG9uJywgJy1waHQnLCAnMC4wJywgJy1waCcsICc3LjQnLCAnLW50JywgJy1tYScsICc1MDAnLCAnLWltYWUnLCAnPGluZmlsZS5tYWU+JywgJy1vbWFlJywgJzxvdXRmaWxlLm1hZT4n

> <r_lp_tautomer_probability>
1

> <r_epik_Ionization_Penalty>
  0.0004

> <r_epik_Ionization_Penalty_Charging>
  0.0000

> <r_epik_Ionization_Penalty_Neutral>
  0.0004

> <r_epik_State_Penalty>
  0.0000

> <r_epik_Charging_Adjusted_Penalty>
4.45674509427693e-05

> <i_epik_Tot_Q>
-2

> <i_epik_Tot_abs_Q>
2

> <s_epik_Chemistry_Notes>
This compound has an imine and may undergo hydrolysis.

> <s_m_subgroup_title>
glide-dock_Nicaido_neutral_pv1

> <s_m_subgroupid>
glide-dock_Nicaido_neutral_pv1

> <b_m_subgroup_collapsed>
0

$$$$
Cefamandole
                    3D
 Schrodinger Suite 2022-2.
 48 51  0  0  1  0            999 V2000
  -33.9203  -21.8852  -20.5216 C   0  0  0  0  0  0
  -33.3003  -22.3888  -21.7284 N   0  0  0  0  0  0
  -32.9263  -21.7658  -22.8530 C   0  0  0  0  0  0
  -33.1291  -20.0295  -23.1152 S   0  0  0  0  0  0
  -31.7333  -19.6873  -24.2421 C   0  0  0  0  0  0
  -30.3520  -19.9258  -23.6206 C   0  0  0  0  0  0
  -29.4390  -20.8289  -24.0877 C   0  0  0  0  0  0
  -28.1966  -21.0315  -23.4479 N   0  0  0  0  0  0
  -27.5841  -20.0092  -22.6229 C   0  0  2  0  0  0
  -26.4171  -20.9800  -22.3698 C   0  0  2  0  0  0
  -27.1090  -21.8925  -23.4158 C   0  0  0  0  0  0
  -26.8457  -22.9153  -24.0132 O   0  0  0  0  0  0
  -26.4310  -21.4351  -20.9821 N   0  0  0  0  0  0
  -26.0096  -22.5910  -20.4543 C   0  0  0  0  0  0
  -26.0971  -22.6984  -18.9187 C   0  0  2  0  0  0
  -26.9947  -23.8627  -18.5300 C   0  0  0  0  0  0
  -28.3710  -23.6718  -18.2706 C   0  0  0  0  0  0
  -29.1657  -24.7512  -17.8384 C   0  0  0  0  0  0
  -28.5904  -26.0253  -17.6645 C   0  0  0  0  0  0
  -27.2394  -26.2377  -18.0095 C   0  0  0  0  0  0
  -26.4381  -25.1525  -18.4134 C   0  0  0  0  0  0
  -26.5072  -21.4690  -18.3373 O   0  0  0  0  0  0
  -25.5803  -23.5349  -21.1239 O   0  0  0  0  0  0
  -28.7692  -19.5490  -21.3300 S   0  0  0  0  0  0
  -30.0860  -18.9945  -22.4331 C   0  0  0  0  0  0
  -29.7079  -21.7363  -25.3402 C   0  0  0  0  0  0
  -29.9690  -21.1490  -26.4132 O   0  5  0  0  0  0
  -29.5672  -22.9724  -25.2078 O   0  0  0  0  0  0
  -32.4331  -22.6422  -23.7223 N   0  0  0  0  0  0
  -32.4837  -23.8495  -23.0494 N   0  0  0  0  0  0
  -32.9982  -23.7047  -21.8629 N   0  0  0  0  0  0
  -34.7061  -21.1728  -20.7766 H   0  0  0  0  0  0
  -34.3616  -22.7005  -19.9482 H   0  0  0  0  0  0
  -33.1688  -21.3789  -19.9191 H   0  0  0  0  0  0
  -31.7919  -18.6397  -24.5418 H   0  0  0  0  0  0
  -31.9062  -20.2592  -25.1495 H   0  0  0  0  0  0
  -27.2938  -19.1486  -23.2279 H   0  0  0  0  0  0
  -25.4589  -20.5631  -22.6840 H   0  0  0  0  0  0
  -26.8042  -20.7790  -20.3040 H   0  0  0  0  0  0
  -25.0900  -22.8988  -18.5457 H   0  0  0  0  0  0
  -28.8210  -22.6937  -18.3754 H   0  0  0  0  0  0
  -30.2100  -24.5830  -17.6200 H   0  0  0  0  0  0
  -29.1902  -26.8455  -17.2984 H   0  0  0  0  0  0
  -26.8032  -27.2191  -17.9020 H   0  0  0  0  0  0
  -25.3888  -25.3065  -18.6201 H   0  0  0  0  0  0
  -26.5871  -21.5769  -17.3994 H   0  0  0  0  0  0
  -29.8263  -18.0072  -22.8170 H   0  0  0  0  0  0
  -30.9755  -18.8681  -21.8181 H   0  0  0  0  0  0
  1  2  1  0  0  0
  1 32  1  0  0  0
  1 33  1  0  0  0
  1 34  1  0  0  0
  2 31  1  0  0  0
  2  3  1  0  0  0
  3  4  1  0  0  0
  3 29  2  0  0  0
  4  5  1  0  0  0
  5  6  1  0  0  0
  5 35  1  0  0  0
  5 36  1  0  0  0
  6 25  1  0  0  0
  6  7  2  0  0  0
  7  8  1  0  0  0
  7 26  1  0  0  0
  8 11  1  0  0  0
  8  9  1  0  0  0
  9 10  1  0  0  0
  9 24  1  0  0  0
  9 37  1  0  0  0
 10 11  1  0  0  0
 10 13  1  0  0  0
 10 38  1  0  0  0
 11 12  2  0  0  0
 13 14  1  0  0  0
 13 39  1  0  0  0
 14 15  1  0  0  0
 14 23  2  0  0  0
 15 16  1  0  0  0
 15 22  1  0  0  0
 15 40  1  0  0  0
 16 21  1  0  0  0
 16 17  2  0  0  0
 17 18  1  0  0  0
 17 41  1  0  0  0
 18 19  2  0  0  0
 18 42  1  0  0  0
 19 20  1  0  0  0
 19 43  1  0  0  0
 20 21  2  0  0  0
 20 44  1  0  0  0
 21 45  1  0  0  0
 22 46  1  0  0  0
 24 25  1  0  0  0
 25 47  1  0  0  0
 25 48  1  0  0  0
 26 27  1  0  0  0
 26 28  2  0  0  0
 29 30  1  0  0  0
 30 31  2  0  0  0
M  CHG  1  27  -1
M  END
> <s_m_entry_id>
27746

> <s_m_entry_name>
data_maestro.9

> <s_m_Source_Path>
C:\Users\olshana1\Git\GramNeg-Accumulation\Gram Negative Permeation - OmpF

> <s_m_Source_File>
data_maestro.csv

> <i_m_Source_File_Index>
9

> <s_m_job_name>
glide-dock_Nicaido_neutral

> <s_i_glide_gridfile>
3POX-grid

> <i_i_glide_lignum>
12

> <i_i_glide_rotatable_bonds>
9

> <r_i_docking_score>
-3.7445043052206

> <r_i_glide_ligand_efficiency>
-0.120790461458729

> <r_i_glide_ligand_efficiency_sa>
-0.379448818185539

> <r_i_glide_ligand_efficiency_ln>
-0.844500476102614

> <r_i_glide_gscore>
-3.7445043052206

> <r_i_glide_lipo>
0

> <r_i_glide_hbond>
-0.632737785210197

> <r_i_glide_metal>
0

> <r_i_glide_rewards>
-0.262381227286535

> <r_i_glide_evdw>
-29.6340732574463

> <r_i_glide_ecoul>
-9.62023639678955

> <r_i_glide_erotb>
0.567285116635731

> <r_i_glide_esite>
-0.491931286968854

> <r_i_glide_emodel>
-58.3715453042496

> <r_i_glide_energy>
-39.2543096542358

> <r_i_glide_einternal>
4.33124685287476

> <i_i_glide_confnum>
93

> <i_i_glide_posenum>
229

> <r_i_glide_eff_state_penalty>
0

> <r_glide_res:A132_vdw>
-1.53034794663471

> <r_glide_res:A132_coul>
-32.2841433478271

> <r_glide_res:A132_hbond>
-0.108074241900546

> <r_glide_res:A132_dist>
2.22981439524863

> <r_glide_res:A132_Eint>
-33.9225655363623

> <r_glide_res:A117_vdw>
-2.95911289264313

> <r_glide_res:A117_coul>
20.5970188648827

> <r_glide_res:A117_hbond>
0

> <r_glide_res:A117_dist>
2.48960398258651

> <r_glide_res:A117_Eint>
17.6379059722396

> <r_glide_res:A113_vdw>
-5.30563242171445

> <r_glide_res:A113_coul>
18.9400295576102

> <r_glide_res:A113_hbond>
0

> <r_glide_res:A113_dist>
2.53347380232192

> <r_glide_res:A113_Eint>
13.6343971358957

> <r_glide_res:A82_vdw>
-2.18194974265879

> <r_glide_res:A82_coul>
-43.3750838082011

> <r_glide_res:A82_hbond>
-0.0217589626746708

> <r_glide_res:A82_dist>
2.39965379764939

> <r_glide_res:A82_Eint>
-45.5787925135345

> <r_glide_res:A42_vdw>
1.49811285094382

> <r_glide_res:A42_coul>
-55.3593940178376

> <r_glide_res:A42_hbond>
-0.30290458063498

> <r_glide_res:A42_dist>
1.63956997247715

> <r_glide_res:A42_Eint>
-54.1641857475288

> <r_glide_res:A16_vdw>
1.01557798258708

> <r_glide_res:A16_coul>
-51.1535676238843

> <r_glide_res:A16_hbond>
-0.2

> <r_glide_res:A16_dist>
1.73678572318873

> <r_glide_res:A16_Eint>
-50.3379896412972

> <s_m_source_file>
ligprep_Nicaido_neutral.maegz

> <i_m_source_file_index>
9

> <i_lp_mmshare_version>
58128

> <i_f3d_flags>
0

> <s_lp_Force_Field>
S-OPLS

> <r_lp_Energy>
50.610726

> <b_lp_Chiralities_Consistent>
1

> <s_lp_Variant>
Cefamandole-1

> <s_epik_input>
bjFubmMobjFbQ0gzXSlTW0NIMl1DKD1DMkMoPU8pW09IXSlbQ0gyXVNbQ0BIXShOMjMpW0NASF0oQzM9TylbTkhdQyg9TylbQ0BASF0oW09IXSljNFtjSF1bY0hdW2NIXVtjSF1bY0hdNA==

> <s_epik_cmdline>
J2VwaWtfcHl0aG9uJywgJy1waHQnLCAnMC4wJywgJy1waCcsICc3LjQnLCAnLW50JywgJy1tYScsICc1MDAnLCAnLWltYWUnLCAnPGluZmlsZS5tYWU+JywgJy1vbWFlJywgJzxvdXRmaWxlLm1hZT4n

> <r_lp_tautomer_probability>
1

> <r_epik_Ionization_Penalty>
  0.0002

> <r_epik_Ionization_Penalty_Charging>
  0.0000

> <r_epik_Ionization_Penalty_Neutral>
  0.0002

> <r_epik_State_Penalty>
  0.0000

> <r_epik_Charging_Adjusted_Penalty>
8.65070171415913e-06

> <i_epik_Tot_Q>
-1

> <i_epik_Tot_abs_Q>
1

> <s_epik_Chemistry_Notes>
This compound contains an acetal/aminal-like group ( X-CH(R)-Y where X, Y are N, S, or O) that may be acid/base labile, releasing an aldehyde.

> <s_m_subgroup_title>
glide-dock_Nicaido_neutral_pv1

> <s_m_subgroupid>
glide-dock_Nicaido_neutral_pv1

> <b_m_subgroup_collapsed>
0

$$$$
Nalidixic acid
                    3D
 Schrodinger Suite 2022-2.
 28 29  0  0  1  0            999 V2000
  -24.7639  -18.2044  -22.5508 C   0  0  0  0  0  0
  -23.6655  -19.2450  -22.3172 C   0  0  0  0  0  0
  -24.0107  -20.5383  -22.9101 N   0  0  0  0  0  0
  -24.8161  -21.4402  -22.2312 C   0  0  0  0  0  0
  -25.1527  -22.6673  -22.6777 C   0  0  0  0  0  0
  -24.6054  -23.1116  -23.9870 C   0  0  0  0  0  0
  -23.8371  -22.1029  -24.7706 C   0  0  0  0  0  0
  -23.5648  -20.8247  -24.2191 C   0  0  0  0  0  0
  -22.8926  -19.8790  -24.9117 N   0  0  0  0  0  0
  -22.4884  -20.1486  -26.1673 C   0  0  0  0  0  0
  -22.6979  -21.3900  -26.7951 C   0  0  0  0  0  0
  -23.3787  -22.3867  -26.0765 C   0  0  0  0  0  0
  -21.8027  -19.0134  -26.8852 C   0  0  0  0  0  0
  -24.7685  -24.2589  -24.4132 O   0  0  0  0  0  0
  -26.1253  -23.5505  -21.8506 C   0  0  0  0  0  0
  -27.1675  -23.9494  -22.4208 O   0  5  0  0  0  0
  -25.6997  -23.9492  -20.7439 O   0  0  0  0  0  0
  -24.4571  -17.2203  -22.1989 H   0  0  0  0  0  0
  -25.0125  -18.1187  -23.6087 H   0  0  0  0  0  0
  -25.6725  -18.4788  -22.0175 H   0  0  0  0  0  0
  -23.5194  -19.3762  -21.2443 H   0  0  0  0  0  0
  -22.7114  -18.8732  -22.6910 H   0  0  0  0  0  0
  -25.2009  -21.0619  -21.2939 H   0  0  0  0  0  0
  -22.3558  -21.5744  -27.8044 H   0  0  0  0  0  0
  -23.5575  -23.3479  -26.5367 H   0  0  0  0  0  0
  -21.1691  -19.3798  -27.6917 H   0  0  0  0  0  0
  -22.5560  -18.3497  -27.3026 H   0  0  0  0  0  0
  -21.1880  -18.4403  -26.1900 H   0  0  0  0  0  0
  1  2  1  0  0  0
  1 18  1  0  0  0
  1 19  1  0  0  0
  1 20  1  0  0  0
  2  3  1  0  0  0
  2 21  1  0  0  0
  2 22  1  0  0  0
  3  8  1  0  0  0
  3  4  1  0  0  0
  4  5  2  0  0  0
  4 23  1  0  0  0
  5  6  1  0  0  0
  5 15  1  0  0  0
  6  7  1  0  0  0
  6 14  2  0  0  0
  7 12  2  0  0  0
  7  8  1  0  0  0
  8  9  2  0  0  0
  9 10  1  0  0  0
 10 11  2  0  0  0
 10 13  1  0  0  0
 11 12  1  0  0  0
 11 24  1  0  0  0
 12 25  1  0  0  0
 13 26  1  0  0  0
 13 27  1  0  0  0
 13 28  1  0  0  0
 15 16  1  0  0  0
 15 17  2  0  0  0
M  CHG  1  16  -1
M  END
> <s_m_entry_id>
27747

> <s_m_entry_name>
data_maestro.31

> <s_m_Source_Path>
C:\Users\olshana1\Git\GramNeg-Accumulation\Gram Negative Permeation - OmpF

> <s_m_Source_File>
data_maestro.csv

> <i_m_Source_File_Index>
31

> <s_m_job_name>
glide-dock_Nicaido_neutral

> <s_i_glide_gridfile>
3POX-grid

> <i_i_glide_lignum>
40

> <i_i_glide_rotatable_bonds>
2

> <r_i_docking_score>
-3.73066671600602

> <r_i_glide_ligand_efficiency>
-0.219450983294472

> <r_i_glide_ligand_efficiency_sa>
-0.564270272864024

> <r_i_glide_ligand_efficiency_ln>
-0.973247868342834

> <r_i_glide_gscore>
-3.73066671600602

> <r_i_glide_lipo>
-0.0708187347888388

> <r_i_glide_hbond>
-0.40402070437081

> <r_i_glide_metal>
0

> <r_i_glide_rewards>
-1.83254086363636

> <r_i_glide_evdw>
-15.6720418930054

> <r_i_glide_ecoul>
-3.11438393592834

> <r_i_glide_erotb>
0

> <r_i_glide_esite>
-0.172526728170486

> <r_i_glide_emodel>
-28.2337343932138

> <r_i_glide_energy>
-18.7864258289337

> <r_i_glide_einternal>
3.79085469245911

> <i_i_glide_confnum>
1

> <i_i_glide_posenum>
143

> <r_i_glide_eff_state_penalty>
0

> <r_glide_res:A132_vdw>
0.0747068637318246

> <r_glide_res:A132_coul>
-48.2354659362513

> <r_glide_res:A132_hbond>
-0.2

> <r_glide_res:A132_dist>
1.79948014560624

> <r_glide_res:A132_Eint>
-48.3607590725195

> <r_glide_res:A117_vdw>
-1.34144817422482

> <r_glide_res:A117_coul>
21.9059613184999

> <r_glide_res:A117_hbond>
0

> <r_glide_res:A117_dist>
2.21512734356818

> <r_glide_res:A117_Eint>
20.5645131442751

> <r_glide_res:A113_vdw>
-0.162967928944229

> <r_glide_res:A113_coul>
25.0867554115

> <r_glide_res:A113_hbond>
0

> <r_glide_res:A113_dist>
6.22171650325357

> <r_glide_res:A113_Eint>
24.9237874825558

> <r_glide_res:A82_vdw>
0.168406906113107

> <r_glide_res:A82_coul>
-46.7491634677424

> <r_glide_res:A82_hbond>
-0.20402070437081

> <r_glide_res:A82_dist>
1.79512740905362

> <r_glide_res:A82_Eint>
-46.7847772660001

> <r_glide_res:A42_vdw>
-1.29578626288797

> <r_glide_res:A42_coul>
-28.9097962258192

> <r_glide_res:A42_hbond>
0

> <r_glide_res:A42_dist>
2.05753979432

> <r_glide_res:A42_Eint>
-30.2055824887072

> <r_glide_res:A16_vdw>
-0.0996206177129013

> <r_glide_res:A16_coul>
-18.765151004002

> <r_glide_res:A16_hbond>
0

> <r_glide_res:A16_dist>
6.86800676580218

> <r_glide_res:A16_Eint>
-18.8647716217149

> <s_m_source_file>
ligprep_Nicaido_neutral.maegz

> <i_m_source_file_index>
31

> <i_lp_mmshare_version>
58128

> <i_f3d_flags>
0

> <s_lp_Force_Field>
S-OPLS

> <r_lp_Energy>
25.048869

> <b_lp_Chiralities_Consistent>
1

> <s_lp_Variant>
Nalidixic acid-1

> <s_epik_input>
Tz1jMWMoQyg9TylbT0hdKVtjSF1uKFtDSDJdW0NIM10pYyhjMTIpbmMoW0NIM10pW2NIXVtjSF0y

> <s_epik_cmdline>
J2VwaWtfcHl0aG9uJywgJy1waHQnLCAnMC4wJywgJy1waCcsICc3LjQnLCAnLW50JywgJy1tYScsICc1MDAnLCAnLWltYWUnLCAnPGluZmlsZS5tYWU+JywgJy1vbWFlJywgJzxvdXRmaWxlLm1hZT4n

> <r_lp_tautomer_probability>
1

> <r_epik_Ionization_Penalty>
  0.0215

> <r_epik_Ionization_Penalty_Charging>
  0.0215

> <r_epik_Ionization_Penalty_Neutral>
  0.0000

> <r_epik_State_Penalty>
  0.0000

> <r_epik_Charging_Adjusted_Penalty>
0.0214516940307923

> <i_epik_Tot_Q>
-1

> <i_epik_Tot_abs_Q>
1

> <s_m_subgroup_title>
glide-dock_Nicaido_neutral_pv1

> <s_m_subgroupid>
glide-dock_Nicaido_neutral_pv1

> <b_m_subgroup_collapsed>
0

$$$$
Cefoxitin
                    3D
 Schrodinger Suite 2022-2.
 44 46  0  0  1  0            999 V2000
  -34.7564  -22.4219  -26.2366 C   0  0  0  0  0  0
  -34.2370  -23.1885  -25.1574 O   0  0  0  0  0  0
  -33.0408  -23.9253  -25.4244 C   0  0  2  0  0  0
  -32.3440  -24.4905  -24.1641 C   0  0  1  0  0  0
  -31.4127  -23.3790  -24.2823 N   0  0  0  0  0  0
  -31.7924  -23.0295  -25.5631 C   0  0  0  0  0  0
  -31.2833  -22.3496  -26.4269 O   0  0  0  0  0  0
  -30.3599  -23.2299  -23.3682 C   0  0  0  0  0  0
  -28.8910  -23.0992  -23.9374 C   0  0  0  0  0  0
  -28.7688  -22.7492  -25.1331 O   0  5  0  0  0  0
  -27.9740  -23.5496  -23.2132 O   0  0  0  0  0  0
  -30.6915  -23.1301  -22.0572 C   0  0  0  0  0  0
  -32.1450  -23.2308  -21.6047 C   0  0  0  0  0  0
  -33.1068  -24.5050  -22.4922 S   0  0  0  0  0  0
  -29.7380  -22.6582  -20.9681 C   0  0  0  0  0  0
  -29.0528  -23.7417  -20.3533 O   0  0  0  0  0  0
  -28.1242  -23.5503  -19.3845 C   0  0  0  0  0  0
  -28.3689  -22.4295  -18.6154 N   0  0  0  0  0  0
  -27.2050  -24.3488  -19.2104 O   0  0  0  0  0  0
  -33.1134  -24.8505  -26.5527 N   0  0  0  0  0  0
  -33.8684  -25.9494  -26.6574 C   0  0  0  0  0  0
  -33.7451  -26.7184  -27.9768 C   0  0  0  0  0  0
  -33.9486  -25.8471  -29.1827 C   0  0  0  0  0  0
  -33.0441  -25.5757  -30.1800 C   0  0  0  0  0  0
  -33.5689  -24.7301  -31.2011 C   0  0  0  0  0  0
  -34.8612  -24.3476  -30.9620 C   0  0  0  0  0  0
  -35.4746  -25.0510  -29.4907 S   0  0  0  0  0  0
  -34.6058  -26.3515  -25.7604 O   0  0  0  0  0  0
  -35.6562  -21.9033  -25.9066 H   0  0  0  0  0  0
  -34.0484  -21.6664  -26.5770 H   0  0  0  0  0  0
  -35.0321  -23.0510  -27.0828 H   0  0  0  0  0  0
  -31.8391  -25.4391  -24.3528 H   0  0  0  0  0  0
  -32.1901  -23.4619  -20.5396 H   0  0  0  0  0  0
  -32.6194  -22.2581  -21.7386 H   0  0  0  0  0  0
  -29.0062  -21.9730  -21.3972 H   0  0  0  0  0  0
  -30.3053  -22.0813  -20.2393 H   0  0  0  0  0  0
  -29.2681  -21.9543  -18.7157 H   0  0  0  0  0  0
  -27.7425  -22.2304  -17.8499 H   0  0  0  0  0  0
  -32.5616  -24.6032  -27.3595 H   0  0  0  0  0  0
  -34.4500  -27.5504  -27.9874 H   0  0  0  0  0  0
  -32.7458  -27.1491  -28.0120 H   0  0  0  0  0  0
  -32.0373  -25.9650  -30.2210 H   0  0  0  0  0  0
  -32.9908  -24.4316  -32.0630 H   0  0  0  0  0  0
  -35.4932  -23.7064  -31.5627 H   0  0  0  0  0  0
  1  2  1  0  0  0
  1 29  1  0  0  0
  1 30  1  0  0  0
  1 31  1  0  0  0
  2  3  1  0  0  0
  3  6  1  0  0  0
  3  4  1  0  0  0
  3 20  1  0  0  0
  4 14  1  0  0  0
  4  5  1  0  0  0
  4 32  1  0  0  0
  5  6  1  0  0  0
  5  8  1  0  0  0
  6  7  2  0  0  0
  8  9  1  0  0  0
  8 12  2  0  0  0
  9 10  1  0  0  0
  9 11  2  0  0  0
 12 13  1  0  0  0
 12 15  1  0  0  0
 13 14  1  0  0  0
 13 33  1  0  0  0
 13 34  1  0  0  0
 15 16  1  0  0  0
 15 35  1  0  0  0
 15 36  1  0  0  0
 16 17  1  0  0  0
 17 18  1  0  0  0
 17 19  2  0  0  0
 18 37  1  0  0  0
 18 38  1  0  0  0
 20 21  1  0  0  0
 20 39  1  0  0  0
 21 22  1  0  0  0
 21 28  2  0  0  0
 22 23  1  0  0  0
 22 40  1  0  0  0
 22 41  1  0  0  0
 23 27  1  0  0  0
 23 24  2  0  0  0
 24 25  1  0  0  0
 24 42  1  0  0  0
 25 26  2  0  0  0
 25 43  1  0  0  0
 26 27  1  0  0  0
 26 44  1  0  0  0
M  CHG  1  10  -1
M  END
> <s_m_entry_id>
27748

> <s_m_entry_name>
data_maestro.4

> <s_m_Source_Path>
C:\Users\olshana1\Git\GramNeg-Accumulation\Gram Negative Permeation - OmpF

> <s_m_Source_File>
data_maestro.csv

> <i_m_Source_File_Index>
4

> <s_m_job_name>
glide-dock_Nicaido_neutral

> <s_i_glide_gridfile>
3POX-grid

> <i_i_glide_lignum>
4

> <i_i_glide_rotatable_bonds>
9

> <r_i_docking_score>
-3.72190484563759

> <r_i_glide_ligand_efficiency>
-0.132925173058485

> <r_i_glide_ligand_efficiency_sa>
-0.403639114145724

> <r_i_glide_ligand_efficiency_ln>
-0.85912491824793

> <r_i_glide_gscore>
-3.72190484563759

> <r_i_glide_lipo>
-0.460689507284699

> <r_i_glide_hbond>
-0.935648849952473

> <r_i_glide_metal>
0

> <r_i_glide_rewards>
0.80842792699862

> <r_i_glide_evdw>
-25.593822479248

> <r_i_glide_ecoul>
-12.8821973800659

> <r_i_glide_erotb>
0.545654768997296

> <r_i_glide_esite>
-0.46762845342404

> <r_i_glide_emodel>
-50.8918271605723

> <r_i_glide_energy>
-38.476019859314

> <r_i_glide_einternal>
7.81487512588501

> <i_i_glide_confnum>
65

> <i_i_glide_posenum>
222

> <r_i_glide_eff_state_penalty>
0

> <r_glide_res:A132_vdw>
-1.56596861210628

> <r_glide_res:A132_coul>
-38.4943623426033

> <r_glide_res:A132_hbond>
-0.269235583875733

> <r_glide_res:A132_dist>
2.12694176395143

> <r_glide_res:A132_Eint>
-40.3295665385853

> <r_glide_res:A117_vdw>
-0.27615130839381

> <r_glide_res:A117_coul>
22.9121170872068

> <r_glide_res:A117_hbond>
0

> <r_glide_res:A117_dist>
5.62735319254926

> <r_glide_res:A117_Eint>
22.635965778813

> <r_glide_res:A113_vdw>
-2.3152890118586

> <r_glide_res:A113_coul>
11.6939302892269

> <r_glide_res:A113_hbond>
-0.14052028928514

> <r_glide_res:A113_dist>
2.05926310900283

> <r_glide_res:A113_Eint>
9.23812098808319

> <r_glide_res:A82_vdw>
-1.94098152255696

> <r_glide_res:A82_coul>
-43.0200862679863

> <r_glide_res:A82_hbond>
-0.188783671184889

> <r_glide_res:A82_dist>
1.93170500861523

> <r_glide_res:A82_Eint>
-45.1498514617281

> <r_glide_res:A42_vdw>
-0.257279604649378

> <r_glide_res:A42_coul>
-46.5801220451572

> <r_glide_res:A42_hbond>
-0.304366792991573

> <r_glide_res:A42_dist>
1.74298838864431

> <r_glide_res:A42_Eint>
-47.1417684427982

> <r_glide_res:A16_vdw>
-3.0841277254993

> <r_glide_res:A16_coul>
-32.7171756777422

> <r_glide_res:A16_hbond>
-0.0327425126151386

> <r_glide_res:A16_dist>
2.29338717395419

> <r_glide_res:A16_Eint>
-35.8340459158566

> <s_m_source_file>
ligprep_Nicaido_neutral.maegz

> <i_m_source_file_index>
4

> <i_lp_mmshare_version>
58128

> <i_f3d_flags>
0

> <s_lp_Force_Field>
S-OPLS

> <r_lp_Energy>
27.517474

> <b_lp_Chiralities_Consistent>
1

> <s_lp_Variant>
Cefoxitin-1

> <s_epik_input>
czFbY0hdW2NIXVtjSF1jMVtDSDJdQyg9TylbTkhdW0NAXTIoT1tDSDNdKUMoPU8pTihbQ0BIXTIzKUMoQyg9TylbT0hdKT1DKFtDSDJdUzMpW0NIMl1PQyg9TylbTkgyXQ==

> <s_epik_cmdline>
J2VwaWtfcHl0aG9uJywgJy1waHQnLCAnMC4wJywgJy1waCcsICc3LjQnLCAnLW50JywgJy1tYScsICc1MDAnLCAnLWltYWUnLCAnPGluZmlsZS5tYWU+JywgJy1vbWFlJywgJzxvdXRmaWxlLm1hZT4n

> <r_lp_tautomer_probability>
1

> <r_epik_Ionization_Penalty>
  0.0000

> <r_epik_Ionization_Penalty_Charging>
  0.0000

> <r_epik_Ionization_Penalty_Neutral>
  0.0000

> <r_epik_State_Penalty>
  0.0000

> <r_epik_Charging_Adjusted_Penalty>
8.89144247208744e-06

> <i_epik_Tot_Q>
-1

> <i_epik_Tot_abs_Q>
1

> <s_epik_Chemistry_Notes>
This compound has an ester and may undergo hydrolysis at high or low pH. This compound contains an acetal/aminal-like group ( X-CH(R)-Y where X, Y are N, S, or O) that may be acid/base labile, releasing an aldehyde.

> <s_m_subgroup_title>
glide-dock_Nicaido_neutral_pv1

> <s_m_subgroupid>
glide-dock_Nicaido_neutral_pv1

> <b_m_subgroup_collapsed>
0

$$$$
Ceftriaxone
                    3D
 Schrodinger Suite 2022-2.
 52 55  0  0  1  0            999 V2000
  -22.8043  -23.0578  -24.4445 C   0  0  0  0  0  0
  -22.9893  -23.7424  -23.1713 N   0  0  0  0  0  0
  -23.3874  -23.0231  -22.0086 C   0  0  0  0  0  0
  -24.1449  -21.3872  -22.3787 S   0  0  0  0  0  0
  -25.1568  -21.0603  -20.8869 C   0  0  0  0  0  0
  -26.6610  -21.0150  -21.1581 C   0  0  0  0  0  0
  -27.3962  -22.1209  -21.4521 C   0  0  0  0  0  0
  -28.7817  -22.0983  -21.6568 N   0  0  0  0  0  0
  -29.6092  -21.0553  -21.0981 C   0  0  2  0  0  0
  -30.8173  -21.7596  -21.7561 C   0  0  2  0  0  0
  -29.8302  -22.9236  -22.0349 C   0  0  0  0  0  0
  -29.8833  -24.0833  -22.3938 O   0  0  0  0  0  0
  -31.3411  -20.9924  -22.8993 N   0  0  0  0  0  0
  -30.9384  -20.9288  -24.1891 C   0  0  0  0  0  0
  -31.4904  -19.7026  -24.9247 C   0  0  0  0  0  0
  -32.7828  -19.1998  -24.4048 C   0  0  0  0  0  0
  -32.8315  -18.3501  -23.3234 C   0  0  0  0  0  0
  -34.4671  -17.9494  -22.8831 S   0  0  0  0  0  0
  -35.0257  -18.9454  -24.2170 C   0  0  0  0  0  0
  -36.3709  -19.1000  -24.4935 N   0  0  0  0  0  0
  -34.0469  -19.5273  -24.9093 N   0  0  0  0  0  0
  -30.9542  -19.0899  -25.9098 N   0  0  0  0  0  0
  -29.6733  -19.5471  -26.2573 O   0  0  0  0  0  0
  -28.7956  -18.4286  -26.2189 C   0  0  0  0  0  0
  -30.1935  -21.7459  -24.7374 O   0  0  0  0  0  0
  -28.9519  -19.4520  -21.6527 S   0  0  0  0  0  0
  -27.2709  -19.6227  -20.9915 C   0  0  0  0  0  0
  -26.7656  -23.5130  -21.6418 C   0  0  0  0  0  0
  -26.4315  -24.1149  -20.5981 O   0  5  0  0  0  0
  -26.7655  -23.9496  -22.8131 O   0  0  0  0  0  0
  -23.2731  -23.4787  -20.7937 N   0  0  0  0  0  0
  -22.8634  -24.7924  -20.6012 C   0  0  0  0  0  0
  -22.7689  -25.7128  -21.8561 C   0  0  0  0  0  0
  -22.7231  -26.9226  -21.6309 O   0  0  0  0  0  0
  -22.7690  -25.1496  -23.0982 N   0  5  0  0  0  0
  -22.6163  -25.2808  -19.4974 O   0  0  0  0  0  0
  -22.1806  -22.1709  -24.3258 H   0  0  0  0  0  0
  -22.3146  -23.7091  -25.1688 H   0  0  0  0  0  0
  -23.7654  -22.7579  -24.8631 H   0  0  0  0  0  0
  -24.8343  -20.1022  -20.4790 H   0  0  0  0  0  0
  -24.9726  -21.7780  -20.0901 H   0  0  0  0  0  0
  -29.5709  -21.1484  -20.0131 H   0  0  0  0  0  0
  -31.5845  -21.9898  -21.0159 H   0  0  0  0  0  0
  -31.9803  -20.2634  -22.6162 H   0  0  0  0  0  0
  -32.0059  -17.9496  -22.7502 H   0  0  0  0  0  0
  -36.6664  -19.8323  -25.1217 H   0  0  0  0  0  0
  -37.0495  -18.8135  -23.8039 H   0  0  0  0  0  0
  -27.7725  -18.7488  -26.4133 H   0  0  0  0  0  0
  -29.0641  -17.6783  -26.9647 H   0  0  0  0  0  0
  -28.7986  -17.9523  -25.2363 H   0  0  0  0  0  0
  -27.2891  -19.3753  -19.9293 H   0  0  0  0  0  0
  -26.6412  -18.8815  -21.4842 H   0  0  0  0  0  0
  1  2  1  0  0  0
  1 37  1  0  0  0
  1 38  1  0  0  0
  1 39  1  0  0  0
  2 35  1  0  0  0
  2  3  1  0  0  0
  3  4  1  0  0  0
  3 31  2  0  0  0
  4  5  1  0  0  0
  5  6  1  0  0  0
  5 40  1  0  0  0
  5 41  1  0  0  0
  6 27  1  0  0  0
  6  7  2  0  0  0
  7  8  1  0  0  0
  7 28  1  0  0  0
  8 11  1  0  0  0
  8  9  1  0  0  0
  9 10  1  0  0  0
  9 26  1  0  0  0
  9 42  1  0  0  0
 10 11  1  0  0  0
 10 13  1  0  0  0
 10 43  1  0  0  0
 11 12  2  0  0  0
 13 14  1  0  0  0
 13 44  1  0  0  0
 14 15  1  0  0  0
 14 25  2  0  0  0
 15 16  1  0  0  0
 15 22  2  3  0  0
 16 21  1  0  0  0
 16 17  2  0  0  0
 17 18  1  0  0  0
 17 45  1  0  0  0
 18 19  1  0  0  0
 19 20  1  0  0  0
 19 21  2  0  0  0
 20 46  1  0  0  0
 20 47  1  0  0  0
 22 23  1  0  0  0
 23 24  1  0  0  0
 24 48  1  0  0  0
 24 49  1  0  0  0
 24 50  1  0  0  0
 26 27  1  0  0  0
 27 51  1  0  0  0
 27 52  1  0  0  0
 28 29  1  0  0  0
 28 30  2  0  0  0
 31 32  1  0  0  0
 32 33  1  0  0  0
 32 36  2  0  0  0
 33 34  2  0  0  0
 33 35  1  0  0  0
M  CHG  2  29  -1  35  -1
M  END
> <s_m_entry_id>
27749

> <s_m_entry_name>
data_maestro.22

> <s_m_Source_Path>
C:\Users\olshana1\Git\GramNeg-Accumulation\Gram Negative Permeation - OmpF

> <s_m_Source_File>
data_maestro.csv

> <i_m_Source_File_Index>
22

> <s_m_job_name>
glide-dock_Nicaido_neutral

> <s_i_glide_gridfile>
3POX-grid

> <i_i_glide_lignum>
29

> <i_i_glide_rotatable_bonds>
9

> <r_i_docking_score>
-3.7124122395137

> <r_i_glide_ligand_efficiency>
-0.103122562208714

> <r_i_glide_ligand_efficiency_sa>
-0.340503197726051

> <r_i_glide_ligand_efficiency_ln>
-0.809948052874016

> <r_i_glide_gscore>
-3.7124122395137

> <r_i_glide_lipo>
-0.00510559171722083

> <r_i_glide_hbond>
-0.806239719479987

> <r_i_glide_metal>
0

> <r_i_glide_rewards>
1.51342329701054

> <r_i_glide_evdw>
-30.6594104766846

> <r_i_glide_ecoul>
-18.0183696746826

> <r_i_glide_erotb>
0.472124986767549

> <r_i_glide_esite>
-0.650889237057964

> <r_i_glide_emodel>
-62.1126514120175

> <r_i_glide_energy>
-48.6777801513672

> <r_i_glide_einternal>
17.3866634368896

> <i_i_glide_confnum>
192

> <i_i_glide_posenum>
281

> <r_i_glide_eff_state_penalty>
0

> <r_glide_res:A132_vdw>
-0.676005246309969

> <r_glide_res:A132_coul>
-84.2507628819482

> <r_glide_res:A132_hbond>
-0.246239719479987

> <r_glide_res:A132_dist>
1.70648727561914

> <r_glide_res:A132_Eint>
-85.1730078477382

> <r_glide_res:A117_vdw>
-3.59503710401584

> <r_glide_res:A117_coul>
37.3383639894695

> <r_glide_res:A117_hbond>
0

> <r_glide_res:A117_dist>
2.23756597590953

> <r_glide_res:A117_Eint>
33.7433268854537

> <r_glide_res:A113_vdw>
-3.47231897077832

> <r_glide_res:A113_coul>
28.8265114125666

> <r_glide_res:A113_hbond>
0

> <r_glide_res:A113_dist>
2.27678527180239

> <r_glide_res:A113_Eint>
25.3541924417883

> <r_glide_res:A82_vdw>
2.3322205067074

> <r_glide_res:A82_coul>
-84.4070975334552

> <r_glide_res:A82_hbond>
-0.36

> <r_glide_res:A82_dist>
1.61089036111196

> <r_glide_res:A82_Eint>
-82.4348770267478

> <r_glide_res:A42_vdw>
-1.66884239693445

> <r_glide_res:A42_coul>
-61.4995669476606

> <r_glide_res:A42_hbond>
0

> <r_glide_res:A42_dist>
2.94031500838947

> <r_glide_res:A42_Eint>
-63.168409344595

> <r_glide_res:A16_vdw>
-1.27286803277061

> <r_glide_res:A16_coul>
-45.1348485876232

> <r_glide_res:A16_hbond>
0

> <r_glide_res:A16_dist>
2.5407725972537

> <r_glide_res:A16_Eint>
-46.4077166203938

> <s_m_source_file>
ligprep_Nicaido_neutral.maegz

> <i_m_source_file_index>
22

> <i_lp_mmshare_version>
58128

> <i_f3d_flags>
0

> <s_lp_Force_Field>
S-OPLS

> <r_lp_Energy>
111.196812

> <b_lp_Chiralities_Consistent>
1

> <s_lp_Variant>
Ceftriaxone-2

> <s_epik_input>
W09IXWMobjEpYyg9TyluYyhuMVtDSDNdKVNbQ0gyXUMoPUMyQyg9TylbT0hdKVtDSDJdU1tDQEhdKE4yMylbQ0BIXShDMz1PKVtOSF1DKD1PKS9DKD1OL09bQ0gzXSljNFtjSF1zYyhuNClbTkgyXQ==

> <s_epik_cmdline>
J2VwaWtfcHl0aG9uJywgJy1waHQnLCAnMC4wJywgJy1waCcsICc3LjQnLCAnLW50JywgJy1tYScsICc1MDAnLCAnLWltYWUnLCAnPGluZmlsZS5tYWU+JywgJy1vbWFlJywgJzxvdXRmaWxlLm1hZT4n

> <r_lp_tautomer_probability>
1

> <r_epik_Ionization_Penalty>
  0.0014

> <r_epik_Ionization_Penalty_Charging>
  0.0010

> <r_epik_Ionization_Penalty_Neutral>
  0.0004

> <r_epik_State_Penalty>
  0.0000

> <r_epik_Charging_Adjusted_Penalty>
0.000994184415634904

> <i_epik_Tot_Q>
-2

> <i_epik_Tot_abs_Q>
2

> <s_epik_Chemistry_Notes>
This compound has an imine and may undergo hydrolysis. This compound contains an acetal/aminal-like group ( X-CH(R)-Y where X, Y are N, S, or O) that may be acid/base labile, releasing an aldehyde.

> <s_m_subgroup_title>
glide-dock_Nicaido_neutral_pv1

> <s_m_subgroupid>
glide-dock_Nicaido_neutral_pv1

> <b_m_subgroup_collapsed>
0

$$$$
Nalidixic acid
                    3D
 Schrodinger Suite 2022-2.
 28 29  0  0  1  0            999 V2000
  -25.9019  -18.3620  -20.0443 C   0  0  0  0  0  0
  -25.3909  -19.8090  -20.0540 C   0  0  0  0  0  0
  -25.2705  -20.3541  -21.4081 N   0  0  0  0  0  0
  -26.2164  -21.2321  -21.9242 C   0  0  0  0  0  0
  -26.1823  -21.7792  -23.1579 C   0  0  0  0  0  0
  -25.0648  -21.3874  -24.0633 C   0  0  0  0  0  0
  -24.0397  -20.4534  -23.5057 C   0  0  0  0  0  0
  -24.1624  -19.9531  -22.1846 C   0  0  0  0  0  0
  -23.2313  -19.1339  -21.6356 N   0  0  0  0  0  0
  -22.1720  -18.7553  -22.3754 C   0  0  0  0  0  0
  -21.9621  -19.2016  -23.6934 C   0  0  0  0  0  0
  -22.9173  -20.0612  -24.2678 C   0  0  0  0  0  0
  -21.2039  -17.7953  -21.7109 C   0  0  0  0  0  0
  -24.9528  -21.8471  -25.2024 O   0  0  0  0  0  0
  -27.3224  -22.7501  -23.6014 C   0  0  0  0  0  0
  -27.8353  -22.5662  -24.7323 O   0  5  0  0  0  0
  -27.5630  -23.7043  -22.8172 O   0  0  0  0  0  0
  -25.9683  -17.9854  -19.0246 H   0  0  0  0  0  0
  -25.2371  -17.6953  -20.5957 H   0  0  0  0  0  0
  -26.8950  -18.2942  -20.4890 H   0  0  0  0  0  0
  -26.0799  -20.4297  -19.4807 H   0  0  0  0  0  0
  -24.4348  -19.8779  -19.5345 H   0  0  0  0  0  0
  -27.0244  -21.4610  -21.2411 H   0  0  0  0  0  0
  -21.1030  -18.8720  -24.2572 H   0  0  0  0  0  0
  -22.7718  -20.4184  -25.2773 H   0  0  0  0  0  0
  -20.2372  -17.8005  -22.2146 H   0  0  0  0  0  0
  -21.5973  -16.7785  -21.7428 H   0  0  0  0  0  0
  -21.0464  -18.0675  -20.6669 H   0  0  0  0  0  0
  1  2  1  0  0  0
  1 18  1  0  0  0
  1 19  1  0  0  0
  1 20  1  0  0  0
  2  3  1  0  0  0
  2 21  1  0  0  0
  2 22  1  0  0  0
  3  8  1  0  0  0
  3  4  1  0  0  0
  4  5  2  0  0  0
  4 23  1  0  0  0
  5  6  1  0  0  0
  5 15  1  0  0  0
  6  7  1  0  0  0
  6 14  2  0  0  0
  7 12  2  0  0  0
  7  8  1  0  0  0
  8  9  2  0  0  0
  9 10  1  0  0  0
 10 11  2  0  0  0
 10 13  1  0  0  0
 11 12  1  0  0  0
 11 24  1  0  0  0
 12 25  1  0  0  0
 13 26  1  0  0  0
 13 27  1  0  0  0
 13 28  1  0  0  0
 15 16  1  0  0  0
 15 17  2  0  0  0
M  CHG  1  16  -1
M  END
> <s_m_entry_id>
27750

> <s_m_entry_name>
data_maestro.31

> <s_m_Source_Path>
C:\Users\olshana1\Git\GramNeg-Accumulation\Gram Negative Permeation - OmpF

> <s_m_Source_File>
data_maestro.csv

> <i_m_Source_File_Index>
31

> <s_m_job_name>
glide-dock_Nicaido_neutral

> <s_i_glide_gridfile>
3POX-grid

> <i_i_glide_lignum>
40

> <i_i_glide_rotatable_bonds>
2

> <r_i_docking_score>
-3.70972388363862

> <r_i_glide_ligand_efficiency>
-0.218219051978743

> <r_i_glide_ligand_efficiency_sa>
-0.561102630553925

> <r_i_glide_ligand_efficiency_ln>
-0.967784349752127

> <r_i_glide_gscore>
-3.70972388363862

> <r_i_glide_lipo>
0

> <r_i_glide_hbond>
-0.417939222810453

> <r_i_glide_metal>
0

> <r_i_glide_rewards>
-1.83254086363636

> <r_i_glide_evdw>
-12.4150238037109

> <r_i_glide_ecoul>
-4.53886890411377

> <r_i_glide_erotb>
0

> <r_i_glide_esite>
-0.157662271389193

> <r_i_glide_emodel>
-26.9379573171174

> <r_i_glide_energy>
-16.9538927078247

> <r_i_glide_einternal>
2.5899932384491

> <i_i_glide_confnum>
1

> <i_i_glide_posenum>
291

> <r_i_glide_eff_state_penalty>
0

> <r_glide_res:A132_vdw>
-0.868715407736793

> <r_glide_res:A132_coul>
-32.6540404653584

> <r_glide_res:A132_hbond>
0

> <r_glide_res:A132_dist>
3.13047980866795

> <r_glide_res:A132_Eint>
-33.5227558730952

> <r_glide_res:A117_vdw>
-2.81635067654572

> <r_glide_res:A117_coul>
26.6291445174794

> <r_glide_res:A117_hbond>
0

> <r_glide_res:A117_dist>
2.61080954869382

> <r_glide_res:A117_Eint>
23.8127938409336

> <r_glide_res:A113_vdw>
-0.325912761855306

> <r_glide_res:A113_coul>
23.6863981105771

> <r_glide_res:A113_hbond>
0

> <r_glide_res:A113_dist>
4.66920863288476

> <r_glide_res:A113_Eint>
23.3604853487218

> <r_glide_res:A82_vdw>
0.106278074816791

> <r_glide_res:A82_coul>
-45.9854885367537

> <r_glide_res:A82_hbond>
-0.2

> <r_glide_res:A82_dist>
1.80281080308928

> <r_glide_res:A82_Eint>
-46.0792104619369

> <r_glide_res:A42_vdw>
1.13864792124152

> <r_glide_res:A42_coul>
-49.7300504687548

> <r_glide_res:A42_hbond>
-0.217939222810453

> <r_glide_res:A42_dist>
1.78557130184304

> <r_glide_res:A42_Eint>
-48.8093417703237

> <r_glide_res:A16_vdw>
-0.164104332453901

> <r_glide_res:A16_coul>
-27.4327454045217

> <r_glide_res:A16_hbond>
0

> <r_glide_res:A16_dist>
4.41445408371381

> <r_glide_res:A16_Eint>
-27.5968497369756

> <s_m_source_file>
ligprep_Nicaido_neutral.maegz

> <i_m_source_file_index>
31

> <i_lp_mmshare_version>
58128

> <i_f3d_flags>
0

> <s_lp_Force_Field>
S-OPLS

> <r_lp_Energy>
25.048869

> <b_lp_Chiralities_Consistent>
1

> <s_lp_Variant>
Nalidixic acid-1

> <s_epik_input>
Tz1jMWMoQyg9TylbT0hdKVtjSF1uKFtDSDJdW0NIM10pYyhjMTIpbmMoW0NIM10pW2NIXVtjSF0y

> <s_epik_cmdline>
J2VwaWtfcHl0aG9uJywgJy1waHQnLCAnMC4wJywgJy1waCcsICc3LjQnLCAnLW50JywgJy1tYScsICc1MDAnLCAnLWltYWUnLCAnPGluZmlsZS5tYWU+JywgJy1vbWFlJywgJzxvdXRmaWxlLm1hZT4n

> <r_lp_tautomer_probability>
1

> <r_epik_Ionization_Penalty>
  0.0215

> <r_epik_Ionization_Penalty_Charging>
  0.0215

> <r_epik_Ionization_Penalty_Neutral>
  0.0000

> <r_epik_State_Penalty>
  0.0000

> <r_epik_Charging_Adjusted_Penalty>
0.0214516940307923

> <i_epik_Tot_Q>
-1

> <i_epik_Tot_abs_Q>
1

> <s_m_subgroup_title>
glide-dock_Nicaido_neutral_pv1

> <s_m_subgroupid>
glide-dock_Nicaido_neutral_pv1

> <b_m_subgroup_collapsed>
0

$$$$
Nalidixic acid
                    3D
 Schrodinger Suite 2022-2.
 28 29  0  0  1  0            999 V2000
  -23.5004  -23.2776  -20.3219 C   0  0  0  0  0  0
  -24.6045  -22.2109  -20.3192 C   0  0  0  0  0  0
  -25.1234  -21.9511  -21.6610 N   0  0  0  0  0  0
  -26.3042  -22.5319  -22.1005 C   0  0  0  0  0  0
  -26.8994  -22.3259  -23.2982 C   0  0  0  0  0  0
  -26.2201  -21.3785  -24.2341 C   0  0  0  0  0  0
  -24.9447  -20.7586  -23.7681 C   0  0  0  0  0  0
  -24.4238  -21.0422  -22.4826 C   0  0  0  0  0  0
  -23.2717  -20.4891  -22.0272 N   0  0  0  0  0  0
  -22.6071  -19.6279  -22.8257 C   0  0  0  0  0  0
  -23.0332  -19.3077  -24.1256 C   0  0  0  0  0  0
  -24.2249  -19.8783  -24.6030 C   0  0  0  0  0  0
  -21.3565  -19.0042  -22.2451 C   0  0  0  0  0  0
  -26.6554  -21.1475  -25.3626 O   0  0  0  0  0  0
  -28.2203  -23.1153  -23.6552 C   0  0  0  0  0  0
  -28.6845  -22.9913  -24.8129 O   0  5  0  0  0  0
  -28.5985  -23.9572  -22.8112 O   0  0  0  0  0  0
  -23.1482  -23.4731  -19.3091 H   0  0  0  0  0  0
  -23.8646  -24.2160  -20.7405 H   0  0  0  0  0  0
  -22.6438  -22.9566  -20.9148 H   0  0  0  0  0  0
  -24.2420  -21.2878  -19.8641 H   0  0  0  0  0  0
  -25.4224  -22.5397  -19.6768 H   0  0  0  0  0  0
  -26.7372  -23.2044  -21.3751 H   0  0  0  0  0  0
  -22.4888  -18.6049  -24.7384 H   0  0  0  0  0  0
  -24.5777  -19.6232  -25.5915 H   0  0  0  0  0  0
  -20.7191  -18.6045  -23.0346 H   0  0  0  0  0  0
  -21.6183  -18.1867  -21.5728 H   0  0  0  0  0  0
  -20.7850  -19.7446  -21.6854 H   0  0  0  0  0  0
  1  2  1  0  0  0
  1 18  1  0  0  0
  1 19  1  0  0  0
  1 20  1  0  0  0
  2  3  1  0  0  0
  2 21  1  0  0  0
  2 22  1  0  0  0
  3  8  1  0  0  0
  3  4  1  0  0  0
  4  5  2  0  0  0
  4 23  1  0  0  0
  5  6  1  0  0  0
  5 15  1  0  0  0
  6  7  1  0  0  0
  6 14  2  0  0  0
  7 12  2  0  0  0
  7  8  1  0  0  0
  8  9  2  0  0  0
  9 10  1  0  0  0
 10 11  2  0  0  0
 10 13  1  0  0  0
 11 12  1  0  0  0
 11 24  1  0  0  0
 12 25  1  0  0  0
 13 26  1  0  0  0
 13 27  1  0  0  0
 13 28  1  0  0  0
 15 16  1  0  0  0
 15 17  2  0  0  0
M  CHG  1  16  -1
M  END
> <s_m_entry_id>
27751

> <s_m_entry_name>
data_maestro.31

> <s_m_Source_Path>
C:\Users\olshana1\Git\GramNeg-Accumulation\Gram Negative Permeation - OmpF

> <s_m_Source_File>
data_maestro.csv

> <i_m_Source_File_Index>
31

> <s_m_job_name>
glide-dock_Nicaido_neutral

> <s_i_glide_gridfile>
3POX-grid

> <i_i_glide_lignum>
40

> <i_i_glide_rotatable_bonds>
2

> <r_i_docking_score>
-3.70271390371198

> <r_i_glide_ligand_efficiency>
-0.217806700218351

> <r_i_glide_ligand_efficiency_sa>
-0.560042358064558

> <r_i_glide_ligand_efficiency_ln>
-0.965955602093843

> <r_i_glide_gscore>
-3.70271390371198

> <r_i_glide_lipo>
0

> <r_i_glide_hbond>
-0.743142462750718

> <r_i_glide_metal>
0

> <r_i_glide_rewards>
-1.83254086363636

> <r_i_glide_evdw>
-10.2864389419556

> <r_i_glide_ecoul>
-2.95114469528198

> <r_i_glide_erotb>
0

> <r_i_glide_esite>
-0.170036925934818

> <r_i_glide_emodel>
-24.4753634720658

> <r_i_glide_energy>
-13.2375836372375

> <r_i_glide_einternal>
0.039936438202858

> <i_i_glide_confnum>
1

> <i_i_glide_posenum>
306

> <r_i_glide_eff_state_penalty>
0

> <r_glide_res:A132_vdw>
-1.41088001367635

> <r_glide_res:A132_coul>
-31.6847897677275

> <r_glide_res:A132_hbond>
0

> <r_glide_res:A132_dist>
2.58094984090648

> <r_glide_res:A132_Eint>
-33.0956697814038

> <r_glide_res:A117_vdw>
-1.97181722846403

> <r_glide_res:A117_coul>
23.6404158791064

> <r_glide_res:A117_hbond>
0

> <r_glide_res:A117_dist>
2.81354371369875

> <r_glide_res:A117_Eint>
21.6685986506423

> <r_glide_res:A113_vdw>
-0.270229531157487

> <r_glide_res:A113_coul>
25.5443980281762

> <r_glide_res:A113_hbond>
0

> <r_glide_res:A113_dist>
5.67540380972661

> <r_glide_res:A113_Eint>
25.2741684970187

> <r_glide_res:A82_vdw>
-0.1692411901107

> <r_glide_res:A82_coul>
-46.6494200109424

> <r_glide_res:A82_hbond>
-0.339015096097726

> <r_glide_res:A82_dist>
2.06162827962286

> <r_glide_res:A82_Eint>
-47.1576762971509

> <r_glide_res:A42_vdw>
0.0637820560417708

> <r_glide_res:A42_coul>
-49.2083145645149

> <r_glide_res:A42_hbond>
-0.404127366652992

> <r_glide_res:A42_dist>
1.91612680530685

> <r_glide_res:A42_Eint>
-49.5486598751262

> <r_glide_res:A16_vdw>
-0.263346724964894

> <r_glide_res:A16_coul>
-30.1582871253065

> <r_glide_res:A16_hbond>
0

> <r_glide_res:A16_dist>
4.10739815235064

> <r_glide_res:A16_Eint>
-30.4216338502714

> <s_m_source_file>
ligprep_Nicaido_neutral.maegz

> <i_m_source_file_index>
31

> <i_lp_mmshare_version>
58128

> <i_f3d_flags>
0

> <s_lp_Force_Field>
S-OPLS

> <r_lp_Energy>
25.048869

> <b_lp_Chiralities_Consistent>
1

> <s_lp_Variant>
Nalidixic acid-1

> <s_epik_input>
Tz1jMWMoQyg9TylbT0hdKVtjSF1uKFtDSDJdW0NIM10pYyhjMTIpbmMoW0NIM10pW2NIXVtjSF0y

> <s_epik_cmdline>
J2VwaWtfcHl0aG9uJywgJy1waHQnLCAnMC4wJywgJy1waCcsICc3LjQnLCAnLW50JywgJy1tYScsICc1MDAnLCAnLWltYWUnLCAnPGluZmlsZS5tYWU+JywgJy1vbWFlJywgJzxvdXRmaWxlLm1hZT4n

> <r_lp_tautomer_probability>
1

> <r_epik_Ionization_Penalty>
  0.0215

> <r_epik_Ionization_Penalty_Charging>
  0.0215

> <r_epik_Ionization_Penalty_Neutral>
  0.0000

> <r_epik_State_Penalty>
  0.0000

> <r_epik_Charging_Adjusted_Penalty>
0.0214516940307923

> <i_epik_Tot_Q>
-1

> <i_epik_Tot_abs_Q>
1

> <s_m_subgroup_title>
glide-dock_Nicaido_neutral_pv1

> <s_m_subgroupid>
glide-dock_Nicaido_neutral_pv1

> <b_m_subgroup_collapsed>
0

$$$$
Cefamandole
                    3D
 Schrodinger Suite 2022-2.
 48 51  0  0  1  0            999 V2000
  -27.7114  -19.1218  -23.9973 C   0  0  0  0  0  0
  -28.2412  -20.3072  -24.6308 N   0  0  0  0  0  0
  -28.0456  -21.6092  -24.3923 C   0  0  0  0  0  0
  -26.9922  -22.2718  -23.1499 S   0  0  0  0  0  0
  -25.3728  -22.0163  -23.9425 C   0  0  0  0  0  0
  -24.2816  -22.7039  -23.1298 C   0  0  0  0  0  0
  -23.7349  -23.9149  -23.4171 C   0  0  0  0  0  0
  -22.9537  -24.5282  -22.4295 N   0  0  0  0  0  0
  -21.8428  -23.8387  -21.7913 C   0  0  2  0  0  0
  -21.7502  -25.0474  -20.8344 C   0  0  2  0  0  0
  -22.7309  -25.7475  -21.8160 C   0  0  0  0  0  0
  -23.1688  -26.8628  -22.0038 O   0  0  0  0  0  0
  -22.2171  -24.7536  -19.4701 N   0  0  0  0  0  0
  -23.4556  -24.5663  -18.9744 C   0  0  0  0  0  0
  -23.5249  -24.0502  -17.5302 C   0  0  2  0  0  0
  -23.7074  -22.5386  -17.5368 C   0  0  0  0  0  0
  -24.9915  -21.9847  -17.3438 C   0  0  0  0  0  0
  -25.1716  -20.5880  -17.3721 C   0  0  0  0  0  0
  -24.0741  -19.7346  -17.5889 C   0  0  0  0  0  0
  -22.7894  -20.2795  -17.7702 C   0  0  0  0  0  0
  -22.6059  -21.6757  -17.7412 C   0  0  0  0  0  0
  -22.3680  -24.4499  -16.8131 O   0  0  0  0  0  0
  -24.4934  -24.7492  -19.6087 O   0  0  0  0  0  0
  -22.2810  -22.1317  -21.2752 S   0  0  0  0  0  0
  -24.0158  -22.0231  -21.7913 C   0  0  0  0  0  0
  -24.0425  -24.7481  -24.7112 C   0  0  0  0  0  0
  -23.9387  -24.1392  -25.7949 O   0  5  0  0  0  0
  -24.3689  -25.9486  -24.5666 O   0  0  0  0  0  0
  -28.7806  -22.3491  -25.2130 N   0  0  0  0  0  0
  -29.4487  -21.4234  -25.9890 N   0  0  0  0  0  0
  -29.1356  -20.2085  -25.6456 N   0  0  0  0  0  0
  -26.7632  -19.3320  -23.5055 H   0  0  0  0  0  0
  -27.5506  -18.3383  -24.7388 H   0  0  0  0  0  0
  -28.4211  -18.7672  -23.2503 H   0  0  0  0  0  0
  -25.1552  -20.9502  -24.0067 H   0  0  0  0  0  0
  -25.4155  -22.3652  -24.9684 H   0  0  0  0  0  0
  -20.9925  -23.8002  -22.4761 H   0  0  0  0  0  0
  -20.7471  -25.4735  -20.8408 H   0  0  0  0  0  0
  -21.4906  -24.5617  -18.7942 H   0  0  0  0  0  0
  -24.3879  -24.5070  -17.0427 H   0  0  0  0  0  0
  -25.8465  -22.6245  -17.1741 H   0  0  0  0  0  0
  -26.1558  -20.1677  -17.2163 H   0  0  0  0  0  0
  -24.2195  -18.6637  -17.6058 H   0  0  0  0  0  0
  -21.9453  -19.6259  -17.9348 H   0  0  0  0  0  0
  -21.6165  -22.0806  -17.8944 H   0  0  0  0  0  0
  -22.3895  -23.9918  -15.9846 H   0  0  0  0  0  0
  -24.2765  -20.9655  -21.8385 H   0  0  0  0  0  0
  -24.6549  -22.4701  -21.0301 H   0  0  0  0  0  0
  1  2  1  0  0  0
  1 32  1  0  0  0
  1 33  1  0  0  0
  1 34  1  0  0  0
  2 31  1  0  0  0
  2  3  1  0  0  0
  3  4  1  0  0  0
  3 29  2  0  0  0
  4  5  1  0  0  0
  5  6  1  0  0  0
  5 35  1  0  0  0
  5 36  1  0  0  0
  6 25  1  0  0  0
  6  7  2  0  0  0
  7  8  1  0  0  0
  7 26  1  0  0  0
  8 11  1  0  0  0
  8  9  1  0  0  0
  9 10  1  0  0  0
  9 24  1  0  0  0
  9 37  1  0  0  0
 10 11  1  0  0  0
 10 13  1  0  0  0
 10 38  1  0  0  0
 11 12  2  0  0  0
 13 14  1  0  0  0
 13 39  1  0  0  0
 14 15  1  0  0  0
 14 23  2  0  0  0
 15 16  1  0  0  0
 15 22  1  0  0  0
 15 40  1  0  0  0
 16 21  1  0  0  0
 16 17  2  0  0  0
 17 18  1  0  0  0
 17 41  1  0  0  0
 18 19  2  0  0  0
 18 42  1  0  0  0
 19 20  1  0  0  0
 19 43  1  0  0  0
 20 21  2  0  0  0
 20 44  1  0  0  0
 21 45  1  0  0  0
 22 46  1  0  0  0
 24 25  1  0  0  0
 25 47  1  0  0  0
 25 48  1  0  0  0
 26 27  1  0  0  0
 26 28  2  0  0  0
 29 30  1  0  0  0
 30 31  2  0  0  0
M  CHG  1  27  -1
M  END
> <s_m_entry_id>
27752

> <s_m_entry_name>
data_maestro.9

> <s_m_Source_Path>
C:\Users\olshana1\Git\GramNeg-Accumulation\Gram Negative Permeation - OmpF

> <s_m_Source_File>
data_maestro.csv

> <i_m_Source_File_Index>
9

> <s_m_job_name>
glide-dock_Nicaido_neutral

> <s_i_glide_gridfile>
3POX-grid

> <i_i_glide_lignum>
12

> <i_i_glide_rotatable_bonds>
9

> <r_i_docking_score>
-3.70113388755557

> <r_i_glide_ligand_efficiency>
-0.119391415727599

> <r_i_glide_ligand_efficiency_sa>
-0.375053882998987

> <r_i_glide_ligand_efficiency_ln>
-0.834719117775471

> <r_i_glide_gscore>
-3.70113388755557

> <r_i_glide_lipo>
0

> <r_i_glide_hbond>
-0.479050385057719

> <r_i_glide_metal>
0

> <r_i_glide_rewards>
-0.260840031905276

> <r_i_glide_evdw>
-27.4205265045166

> <r_i_glide_ecoul>
-9.75830078125

> <r_i_glide_erotb>
0.567285116635731

> <r_i_glide_esite>
-0.693757144814976

> <r_i_glide_emodel>
-53.1407944926522

> <r_i_glide_energy>
-37.1788272857666

> <r_i_glide_einternal>
10.1399536132813

> <i_i_glide_confnum>
170

> <i_i_glide_posenum>
318

> <r_i_glide_eff_state_penalty>
0

> <r_glide_res:A132_vdw>
-1.60479853466776

> <r_glide_res:A132_coul>
-40.8846681603873

> <r_glide_res:A132_hbond>
-0.18399413887281

> <r_glide_res:A132_dist>
2.12539556751074

> <r_glide_res:A132_Eint>
-42.6734608339279

> <r_glide_res:A117_vdw>
-2.31181314855336

> <r_glide_res:A117_coul>
14.8883774254258

> <r_glide_res:A117_hbond>
0

> <r_glide_res:A117_dist>
2.42507227210797

> <r_glide_res:A117_Eint>
12.5765642768724

> <r_glide_res:A113_vdw>
-0.419255374074193

> <r_glide_res:A113_coul>
15.9810716530793

> <r_glide_res:A113_hbond>
0

> <r_glide_res:A113_dist>
4.95408039712786

> <r_glide_res:A113_Eint>
15.5618162790051

> <r_glide_res:A82_vdw>
-1.27071621176004

> <r_glide_res:A82_coul>
-48.1357228058336

> <r_glide_res:A82_hbond>
-0.184378516279461

> <r_glide_res:A82_dist>
1.84183089414632

> <r_glide_res:A82_Eint>
-49.5908175338731

> <r_glide_res:A42_vdw>
0.26421061235851

> <r_glide_res:A42_coul>
-45.2597318803783

> <r_glide_res:A42_hbond>
-0.110677729905447

> <r_glide_res:A42_dist>
1.94092512050063

> <r_glide_res:A42_Eint>
-45.1061989979252

> <r_glide_res:A16_vdw>
-0.908998336460666

> <r_glide_res:A16_coul>
-24.9657591608182

> <r_glide_res:A16_hbond>
0

> <r_glide_res:A16_dist>
2.30660794880392

> <r_glide_res:A16_Eint>
-25.8747574972789

> <s_m_source_file>
ligprep_Nicaido_neutral.maegz

> <i_m_source_file_index>
9

> <i_lp_mmshare_version>
58128

> <i_f3d_flags>
0

> <s_lp_Force_Field>
S-OPLS

> <r_lp_Energy>
50.610726

> <b_lp_Chiralities_Consistent>
1

> <s_lp_Variant>
Cefamandole-1

> <s_epik_input>
bjFubmMobjFbQ0gzXSlTW0NIMl1DKD1DMkMoPU8pW09IXSlbQ0gyXVNbQ0BIXShOMjMpW0NASF0oQzM9TylbTkhdQyg9TylbQ0BASF0oW09IXSljNFtjSF1bY0hdW2NIXVtjSF1bY0hdNA==

> <s_epik_cmdline>
J2VwaWtfcHl0aG9uJywgJy1waHQnLCAnMC4wJywgJy1waCcsICc3LjQnLCAnLW50JywgJy1tYScsICc1MDAnLCAnLWltYWUnLCAnPGluZmlsZS5tYWU+JywgJy1vbWFlJywgJzxvdXRmaWxlLm1hZT4n

> <r_lp_tautomer_probability>
1

> <r_epik_Ionization_Penalty>
  0.0002

> <r_epik_Ionization_Penalty_Charging>
  0.0000

> <r_epik_Ionization_Penalty_Neutral>
  0.0002

> <r_epik_State_Penalty>
  0.0000

> <r_epik_Charging_Adjusted_Penalty>
8.65070171415913e-06

> <i_epik_Tot_Q>
-1

> <i_epik_Tot_abs_Q>
1

> <s_epik_Chemistry_Notes>
This compound contains an acetal/aminal-like group ( X-CH(R)-Y where X, Y are N, S, or O) that may be acid/base labile, releasing an aldehyde.

> <s_m_subgroup_title>
glide-dock_Nicaido_neutral_pv1

> <s_m_subgroupid>
glide-dock_Nicaido_neutral_pv1

> <b_m_subgroup_collapsed>
0

$$$$
Sulbenicillin
                    3D
 Schrodinger Suite 2022-2.
 43 45  0  0  1  0            999 V2000
  -31.3401  -21.4876  -23.2221 C   0  0  0  0  0  0
  -29.9211  -22.0316  -22.9571 C   0  0  0  0  0  0
  -29.0021  -22.1334  -24.2304 C   0  0  2  0  0  0
  -27.7095  -21.6925  -23.7486 N   0  0  0  0  0  0
  -27.5394  -20.6656  -22.7357 C   0  0  1  0  0  0
  -29.0620  -20.9204  -21.7722 S   0  0  0  0  0  0
  -26.1491  -21.2554  -22.4434 C   0  0  2  0  0  0
  -26.4977  -22.2919  -23.5196 C   0  0  0  0  0  0
  -25.9867  -23.2832  -23.9937 O   0  0  0  0  0  0
  -25.9743  -21.7085  -21.0530 N   0  0  0  0  0  0
  -26.0356  -22.9201  -20.4549 C   0  0  0  0  0  0
  -25.5347  -22.9734  -18.9877 C   0  0  2  0  0  0
  -24.7621  -21.7065  -18.5972 C   0  0  0  0  0  0
  -23.4122  -21.5206  -18.9780 C   0  0  0  0  0  0
  -22.7407  -20.3222  -18.6663 C   0  0  0  0  0  0
  -23.4161  -19.2934  -17.9839 C   0  0  0  0  0  0
  -24.7617  -19.4667  -17.6120 C   0  0  0  0  0  0
  -25.4297  -20.6698  -17.9078 C   0  0  0  0  0  0
  -24.5437  -24.5198  -18.6389 S   0  0  0  0  0  0
  -23.7509  -24.7496  -19.8588 O   0  0  0  0  0  0
  -25.5683  -25.5495  -18.4133 O   0  5  0  0  0  0
  -23.7299  -24.2291  -17.4477 O   0  0  0  0  0  0
  -26.4613  -23.9438  -21.0023 O   0  0  0  0  0  0
  -29.4247  -21.3179  -25.4764 C   0  0  0  0  0  0
  -29.1819  -20.0947  -25.5113 O   0  5  0  0  0  0
  -29.9680  -21.9496  -26.4134 O   0  0  0  0  0  0
  -30.0402  -23.4167  -22.2937 C   0  0  0  0  0  0
  -31.8730  -22.0964  -23.9528 H   0  0  0  0  0  0
  -31.9316  -21.4787  -22.3060 H   0  0  0  0  0  0
  -31.3173  -20.4607  -23.5900 H   0  0  0  0  0  0
  -28.9168  -23.1742  -24.5444 H   0  0  0  0  0  0
  -27.5022  -19.6563  -23.1515 H   0  0  0  0  0  0
  -25.3620  -20.5656  -22.7499 H   0  0  0  0  0  0
  -25.6569  -20.9762  -20.4323 H   0  0  0  0  0  0
  -26.4042  -23.0395  -18.3333 H   0  0  0  0  0  0
  -22.8852  -22.2918  -19.5203 H   0  0  0  0  0  0
  -21.7096  -20.1892  -18.9590 H   0  0  0  0  0  0
  -22.9070  -18.3699  -17.7481 H   0  0  0  0  0  0
  -25.2843  -18.6762  -17.0922 H   0  0  0  0  0  0
  -26.4653  -20.7784  -17.6164 H   0  0  0  0  0  0
  -30.5749  -24.1187  -22.9331 H   0  0  0  0  0  0
  -29.0581  -23.8349  -22.0724 H   0  0  0  0  0  0
  -30.5843  -23.3533  -21.3500 H   0  0  0  0  0  0
  1  2  1  0  0  0
  1 28  1  0  0  0
  1 29  1  0  0  0
  1 30  1  0  0  0
  2  6  1  0  0  0
  2  3  1  0  0  0
  2 27  1  0  0  0
  3  4  1  0  0  0
  3 24  1  0  0  0
  3 31  1  0  0  0
  4  8  1  0  0  0
  4  5  1  0  0  0
  5  6  1  0  0  0
  5  7  1  0  0  0
  5 32  1  0  0  0
  7  8  1  0  0  0
  7 10  1  0  0  0
  7 33  1  0  0  0
  8  9  2  0  0  0
 10 11  1  0  0  0
 10 34  1  0  0  0
 11 12  1  0  0  0
 11 23  2  0  0  0
 12 13  1  0  0  0
 12 19  1  0  0  0
 12 35  1  0  0  0
 13 18  1  0  0  0
 13 14  2  0  0  0
 14 15  1  0  0  0
 14 36  1  0  0  0
 15 16  2  0  0  0
 15 37  1  0  0  0
 16 17  1  0  0  0
 16 38  1  0  0  0
 17 18  2  0  0  0
 17 39  1  0  0  0
 18 40  1  0  0  0
 19 20  2  0  0  0
 19 21  1  0  0  0
 19 22  2  0  0  0
 24 25  1  0  0  0
 24 26  2  0  0  0
 27 41  1  0  0  0
 27 42  1  0  0  0
 27 43  1  0  0  0
M  CHG  2  21  -1  25  -1
M  END
> <s_m_entry_id>
27753

> <s_m_entry_name>
data_maestro.23

> <s_m_Source_Path>
C:\Users\olshana1\Git\GramNeg-Accumulation\Gram Negative Permeation - OmpF

> <s_m_Source_File>
data_maestro.csv

> <i_m_Source_File_Index>
23

> <s_m_job_name>
glide-dock_Nicaido_neutral

> <s_i_glide_gridfile>
3POX-grid

> <i_i_glide_lignum>
30

> <i_i_glide_rotatable_bonds>
6

> <r_i_docking_score>
-3.6813698993978

> <r_i_glide_ligand_efficiency>
-0.13634703331103

> <r_i_glide_ligand_efficiency_sa>
-0.409041099483711

> <r_i_glide_ligand_efficiency_ln>
-0.856962220453669

> <r_i_glide_gscore>
-3.6813698993978

> <r_i_glide_lipo>
0

> <r_i_glide_hbond>
-0.714625220884425

> <r_i_glide_metal>
0

> <r_i_glide_rewards>
-0.59101853428403

> <r_i_glide_evdw>
-22.2121849060059

> <r_i_glide_ecoul>
-6.92893362045288

> <r_i_glide_erotb>
0.347763984117939

> <r_i_glide_esite>
-0.573540839979059

> <r_i_glide_emodel>
-46.2618950119697

> <r_i_glide_energy>
-29.1411185264587

> <r_i_glide_einternal>
5.64793014526367

> <i_i_glide_confnum>
18

> <i_i_glide_posenum>
337

> <r_i_glide_eff_state_penalty>
0

> <r_glide_res:A132_vdw>
-1.56681274013599

> <r_glide_res:A132_coul>
-64.3001879302042

> <r_glide_res:A132_hbond>
-0.16

> <r_glide_res:A132_dist>
1.85260755912508

> <r_glide_res:A132_Eint>
-66.0270006703402

> <r_glide_res:A117_vdw>
-1.79255004419706

> <r_glide_res:A117_coul>
43.0123267024015

> <r_glide_res:A117_hbond>
0

> <r_glide_res:A117_dist>
2.97509395579237

> <r_glide_res:A117_Eint>
41.2197766582044

> <r_glide_res:A113_vdw>
-1.92315212394571

> <r_glide_res:A113_coul>
42.7661085634896

> <r_glide_res:A113_hbond>
0

> <r_glide_res:A113_dist>
3.54005496135174

> <r_glide_res:A113_Eint>
40.8429564395439

> <r_glide_res:A82_vdw>
-2.09171013057855

> <r_glide_res:A82_coul>
-54.1303261869428

> <r_glide_res:A82_hbond>
-0.0231253665406711

> <r_glide_res:A82_dist>
1.99166807188034

> <r_glide_res:A82_Eint>
-56.245161684062

> <r_glide_res:A42_vdw>
-1.13466174687832

> <r_glide_res:A42_coul>
-59.5832611229172

> <r_glide_res:A42_hbond>
-0.171499854343754

> <r_glide_res:A42_dist>
2.03491225708578

> <r_glide_res:A42_Eint>
-60.8894227241393

> <r_glide_res:A16_vdw>
-0.240658600107183

> <r_glide_res:A16_coul>
-64.2721390986145

> <r_glide_res:A16_hbond>
-0.2

> <r_glide_res:A16_dist>
1.9074967236457

> <r_glide_res:A16_Eint>
-64.7127976987217

> <s_m_source_file>
ligprep_Nicaido_neutral.maegz

> <i_m_source_file_index>
23

> <i_lp_mmshare_version>
58128

> <i_f3d_flags>
0

> <s_lp_Force_Field>
S-OPLS

> <r_lp_Energy>
22.166908

> <b_lp_Chiralities_Consistent>
1

> <s_lp_Variant>
Sulbenicillin-1

> <s_epik_input>
W09IXUMoPU8pW0NAQEhdMUMoW0NIM10pKFtDSDNdKVNbQ0BIXShOMTIpW0NASF0oQzI9TylbTkhdQyg9TylbQ0BASF0oUyg9TykoPU8pW09IXSljM1tjSF1bY0hdW2NIXVtjSF1bY0hdMw==

> <s_epik_cmdline>
J2VwaWtfcHl0aG9uJywgJy1waHQnLCAnMC4wJywgJy1waCcsICc3LjQnLCAnLW50JywgJy1tYScsICc1MDAnLCAnLWltYWUnLCAnPGluZmlsZS5tYWU+JywgJy1vbWFlJywgJzxvdXRmaWxlLm1hZT4n

> <r_lp_tautomer_probability>
1

> <r_epik_Ionization_Penalty>
  0.0000

> <r_epik_Ionization_Penalty_Charging>
  0.0000

> <r_epik_Ionization_Penalty_Neutral>
  0.0000

> <r_epik_State_Penalty>
  0.0000

> <r_epik_Charging_Adjusted_Penalty>
1.13251598244902e-05

> <i_epik_Tot_Q>
-2

> <i_epik_Tot_abs_Q>
2

> <s_epik_Chemistry_Notes>
This compound contains an acetal/aminal-like group ( X-CH(R)-Y where X, Y are N, S, or O) that may be acid/base labile, releasing an aldehyde.

> <s_m_subgroup_title>
glide-dock_Nicaido_neutral_pv1

> <s_m_subgroupid>
glide-dock_Nicaido_neutral_pv1

> <b_m_subgroup_collapsed>
0

$$$$
BL-S217
                    3D
 Schrodinger Suite 2022-2.
 48 50  0  0  1  0            999 V2000
  -27.9687  -21.9557  -25.2133 O   0  0  0  0  0  0
  -27.8384  -21.1516  -24.3151 C   0  0  0  0  0  0
  -27.4758  -19.6538  -24.1718 C   0  0  2  0  0  0
  -27.9397  -19.8137  -22.7066 C   0  0  1  0  0  0
  -27.9630  -21.2422  -22.9409 N   0  0  0  0  0  0
  -28.2370  -22.1715  -21.9207 C   0  0  0  0  0  0
  -28.4559  -23.6242  -22.4060 C   0  0  0  0  0  0
  -29.5906  -23.9494  -22.8132 O   0  5  0  0  0  0
  -27.4364  -24.3492  -22.4128 O   0  0  0  0  0  0
  -28.2456  -21.8439  -20.5997 C   0  0  0  0  0  0
  -27.9120  -20.4429  -20.0972 C   0  0  0  0  0  0
  -26.8634  -19.5492  -21.2635 S   0  0  0  0  0  0
  -28.6334  -22.8220  -19.4932 C   0  0  0  0  0  0
  -27.7284  -23.9220  -19.3938 O   0  0  0  0  0  0
  -26.5588  -23.8906  -18.7088 C   0  0  0  0  0  0
  -26.3206  -22.7116  -17.7658 C   0  0  0  0  0  0
  -25.7120  -24.7768  -18.8130 O   0  0  0  0  0  0
  -28.3126  -18.6819  -24.8918 N   0  0  0  0  0  0
  -29.2523  -18.8316  -25.8476 C   0  0  0  0  0  0
  -29.9604  -17.5456  -26.2581 C   0  0  0  0  0  0
  -31.4797  -17.7743  -27.2395 S   0  0  0  0  0  0
  -32.7251  -16.9379  -26.3132 C   0  0  0  0  0  0
  -33.0107  -17.3302  -24.9904 C   0  0  0  0  0  0
  -33.9775  -16.6124  -24.2577 C   0  0  0  0  0  0
  -34.6199  -15.5555  -24.8158 N   0  3  0  0  0  0
  -35.5917  -14.7984  -24.0134 C   0  0  0  0  0  0
  -34.3684  -15.1621  -26.0913 C   0  0  0  0  0  0
  -33.4182  -15.8481  -26.8771 C   0  0  0  0  0  0
  -29.5694  -19.8976  -26.3787 O   0  0  0  0  0  0
  -26.4094  -19.4361  -24.2440 H   0  0  0  0  0  0
  -28.9478  -19.4353  -22.5193 H   0  0  0  0  0  0
  -28.8299  -19.8800  -19.9480 H   0  0  0  0  0  0
  -27.4060  -20.4746  -19.1348 H   0  0  0  0  0  0
  -28.7677  -22.3027  -18.5449 H   0  0  0  0  0  0
  -29.6157  -23.2258  -19.7400 H   0  0  0  0  0  0
  -25.5609  -22.9788  -17.0304 H   0  0  0  0  0  0
  -25.9542  -21.8496  -18.3189 H   0  0  0  0  0  0
  -27.2186  -22.4381  -17.2131 H   0  0  0  0  0  0
  -28.1345  -17.7283  -24.6062 H   0  0  0  0  0  0
  -29.2702  -16.9086  -26.8125 H   0  0  0  0  0  0
  -30.2172  -17.0186  -25.3412 H   0  0  0  0  0  0
  -32.4818  -18.1538  -24.5320 H   0  0  0  0  0  0
  -34.2226  -16.8401  -23.2292 H   0  0  0  0  0  0
  -36.0543  -15.4630  -23.2825 H   0  0  0  0  0  0
  -35.0578  -13.9938  -23.5063 H   0  0  0  0  0  0
  -36.3625  -14.3878  -24.6668 H   0  0  0  0  0  0
  -34.9146  -14.2991  -26.4468 H   0  0  0  0  0  0
  -33.1995  -15.5262  -27.8851 H   0  0  0  0  0  0
  1  2  2  0  0  0
  2  5  1  0  0  0
  2  3  1  0  0  0
  3  4  1  0  0  0
  3 18  1  0  0  0
  3 30  1  0  0  0
  4 12  1  0  0  0
  4  5  1  0  0  0
  4 31  1  0  0  0
  5  6  1  0  0  0
  6  7  1  0  0  0
  6 10  2  0  0  0
  7  8  1  0  0  0
  7  9  2  0  0  0
 10 11  1  0  0  0
 10 13  1  0  0  0
 11 12  1  0  0  0
 11 32  1  0  0  0
 11 33  1  0  0  0
 13 14  1  0  0  0
 13 34  1  0  0  0
 13 35  1  0  0  0
 14 15  1  0  0  0
 15 16  1  0  0  0
 15 17  2  0  0  0
 16 36  1  0  0  0
 16 37  1  0  0  0
 16 38  1  0  0  0
 18 19  1  0  0  0
 18 39  1  0  0  0
 19 20  1  0  0  0
 19 29  2  0  0  0
 20 21  1  0  0  0
 20 40  1  0  0  0
 20 41  1  0  0  0
 21 22  1  0  0  0
 22 28  1  0  0  0
 22 23  2  0  0  0
 23 24  1  0  0  0
 23 42  1  0  0  0
 24 25  2  0  0  0
 24 43  1  0  0  0
 25 26  1  0  0  0
 25 27  1  0  0  0
 26 44  1  0  0  0
 26 45  1  0  0  0
 26 46  1  0  0  0
 27 28  2  0  0  0
 27 47  1  0  0  0
 28 48  1  0  0  0
M  CHG  2   8  -1  25   1
M  END
> <s_m_entry_id>
27754

> <s_m_entry_name>
data_maestro.17

> <s_m_Source_Path>
C:\Users\olshana1\Git\GramNeg-Accumulation\Gram Negative Permeation - OmpF

> <s_m_Source_File>
data_maestro.csv

> <i_m_Source_File_Index>
17

> <s_m_job_name>
glide-dock_Nicaido_neutral

> <s_i_glide_gridfile>
3POX-grid

> <i_i_glide_lignum>
22

> <i_i_glide_rotatable_bonds>
9

> <r_i_docking_score>
-3.673099853018

> <r_i_glide_ligand_efficiency>
-0.12665861562131

> <r_i_glide_ligand_efficiency_sa>
-0.38913539545465

> <r_i_glide_ligand_efficiency_ln>
-0.841046724565341

> <r_i_glide_gscore>
-3.673099853018

> <r_i_glide_lipo>
-0.274058420483056

> <r_i_glide_hbond>
-0.837169347507612

> <r_i_glide_metal>
0

> <r_i_glide_rewards>
2.30665297510838

> <r_i_glide_evdw>
-33.2495346069336

> <r_i_glide_ecoul>
-22.846658706665

> <r_i_glide_erotb>
0.729326637690335

> <r_i_glide_esite>
-0.508376161479609

> <r_i_glide_emodel>
-63.6778415094568

> <r_i_glide_energy>
-56.0961933135986

> <r_i_glide_einternal>
14.7584199905396

> <i_i_glide_confnum>
139

> <i_i_glide_posenum>
385

> <r_i_glide_eff_state_penalty>
0

> <r_glide_res:A132_vdw>
-1.96945680873806

> <r_glide_res:A132_coul>
-34.0038751405091

> <r_glide_res:A132_hbond>
-0.181326113595906

> <r_glide_res:A132_dist>
2.1509186213328

> <r_glide_res:A132_Eint>
-36.1546580628431

> <r_glide_res:A117_vdw>
-5.11791849139317

> <r_glide_res:A117_coul>
-6.68786364637927

> <r_glide_res:A117_hbond>
-0.0379946393300573

> <r_glide_res:A117_dist>
1.87851357254651

> <r_glide_res:A117_Eint>
-11.8437767771025

> <r_glide_res:A113_vdw>
-2.40669236552429

> <r_glide_res:A113_coul>
-1.8250006940031

> <r_glide_res:A113_hbond>
0

> <r_glide_res:A113_dist>
2.42864359828488

> <r_glide_res:A113_Eint>
-4.23169305952738

> <r_glide_res:A82_vdw>
4.80006788525399

> <r_glide_res:A82_coul>
-47.6708861357465

> <r_glide_res:A82_hbond>
-0.376635135487332

> <r_glide_res:A82_dist>
1.55327027097466

> <r_glide_res:A82_Eint>
-43.2474533859798

> <r_glide_res:A42_vdw>
-0.326998905766159

> <r_glide_res:A42_coul>
-28.9641160787523

> <r_glide_res:A42_hbond>
-0.170609082069479

> <r_glide_res:A42_dist>
1.80223692054169

> <r_glide_res:A42_Eint>
-29.461724066588

> <r_glide_res:A16_vdw>
-1.26494440113731

> <r_glide_res:A16_coul>
-14.8511669932428

> <r_glide_res:A16_hbond>
-0.0706043770248383

> <r_glide_res:A16_dist>
2.26921952303872

> <r_glide_res:A16_Eint>
-16.186715771405

> <s_m_source_file>
ligprep_Nicaido_neutral.maegz

> <i_m_source_file_index>
17

> <i_lp_mmshare_version>
58128

> <i_f3d_flags>
0

> <s_lp_Force_Field>
S-OPLS

> <r_lp_Energy>
45.233938

> <b_lp_Chiralities_Consistent>
1

> <s_lp_Variant>
BL-S217-1

> <s_epik_input>
W0NIM11DKD1PKU9bQ0gyXUMoW0NIMl1TMSk9QyhDKD1PKVtPSF0pTihbQ0BASF0xMilDKD1PKVtDQEhdMltOSF1DKD1PKVtDSDJdU2MzW2NIXVtjSF1bbitdKFtDSDNdKVtjSF1bY0hdMw==

> <s_epik_cmdline>
J2VwaWtfcHl0aG9uJywgJy1waHQnLCAnMC4wJywgJy1waCcsICc3LjQnLCAnLW50JywgJy1tYScsICc1MDAnLCAnLWltYWUnLCAnPGluZmlsZS5tYWU+JywgJy1vbWFlJywgJzxvdXRmaWxlLm1hZT4n

> <r_lp_tautomer_probability>
1

> <r_epik_Ionization_Penalty>
  0.0000

> <r_epik_Ionization_Penalty_Charging>
  0.0000

> <r_epik_Ionization_Penalty_Neutral>
  0.0000

> <r_epik_State_Penalty>
  0.0000

> <r_epik_Charging_Adjusted_Penalty>
6.14912740637116e-06

> <i_epik_Tot_Q>
0

> <i_epik_Tot_abs_Q>
2

> <s_epik_Chemistry_Notes>
This compound has an ester and may undergo hydrolysis at high or low pH. This compound contains an acetal/aminal-like group ( X-CH(R)-Y where X, Y are N, S, or O) that may be acid/base labile, releasing an aldehyde.

> <s_m_subgroup_title>
glide-dock_Nicaido_neutral_pv1

> <s_m_subgroupid>
glide-dock_Nicaido_neutral_pv1

> <b_m_subgroup_collapsed>
0

$$$$
Cefotaxime
                    3D
 Schrodinger Suite 2022-2.
 46 48  0  0  1  0            999 V2000
  -22.3416  -18.3496  -26.8134 C   0  0  0  0  0  0
  -22.3817  -19.7349  -26.2392 C   0  0  0  0  0  0
  -21.1521  -20.2645  -26.1498 O   0  0  0  0  0  0
  -20.9397  -21.6068  -25.7551 C   0  0  0  0  0  0
  -21.5094  -21.9262  -24.3759 C   0  0  0  0  0  0
  -22.5312  -22.7984  -24.2047 C   0  0  0  0  0  0
  -23.0449  -23.1181  -22.9419 N   0  0  0  0  0  0
  -22.9456  -22.2088  -21.8169 C   0  0  1  0  0  0
  -23.6571  -23.2985  -20.9889 C   0  0  2  0  0  0
  -23.9920  -23.9328  -22.3619 C   0  0  0  0  0  0
  -24.7689  -24.7480  -22.8133 O   0  0  0  0  0  0
  -24.8511  -22.7905  -20.3270 N   0  0  0  0  0  0
  -25.7210  -23.5496  -19.6414 C   0  0  0  0  0  0
  -27.1434  -22.9602  -19.5542 C   0  0  0  0  0  0
  -27.3478  -21.6535  -20.2435 C   0  0  0  0  0  0
  -27.9690  -20.6050  -19.6091 C   0  0  0  0  0  0
  -28.1340  -19.2114  -20.6400 S   0  0  0  0  0  0
  -27.3407  -20.1125  -21.9176 C   0  0  0  0  0  0
  -27.0868  -19.5496  -23.1530 N   0  0  0  0  0  0
  -27.0046  -21.3549  -21.5737 N   0  0  0  0  0  0
  -28.1560  -23.4863  -18.9792 N   0  0  0  0  0  0
  -27.9429  -24.7494  -18.4134 O   0  0  0  0  0  0
  -29.0887  -25.0692  -17.6432 C   0  0  0  0  0  0
  -25.4136  -24.6649  -19.2134 O   0  0  0  0  0  0
  -21.1878  -21.8135  -21.5816 S   0  0  0  0  0  0
  -20.8582  -21.1430  -23.2373 C   0  0  0  0  0  0
  -23.1484  -23.5750  -25.4035 C   0  0  0  0  0  0
  -23.9689  -22.9907  -26.1355 O   0  5  0  0  0  0
  -22.7689  -24.7496  -25.5058 O   0  0  0  0  0  0
  -23.4486  -20.2436  -25.9080 O   0  0  0  0  0  0
  -21.9689  -18.3749  -27.8367 H   0  0  0  0  0  0
  -23.3538  -17.9496  -26.8134 H   0  0  0  0  0  0
  -21.7036  -17.7002  -26.2143 H   0  0  0  0  0  0
  -19.8649  -21.7863  -25.7306 H   0  0  0  0  0  0
  -21.3296  -22.2583  -26.5350 H   0  0  0  0  0  0
  -23.5414  -21.3080  -21.9879 H   0  0  0  0  0  0
  -22.9817  -23.8709  -20.3510 H   0  0  0  0  0  0
  -25.1882  -21.8911  -20.6481 H   0  0  0  0  0  0
  -28.3688  -20.5651  -18.6046 H   0  0  0  0  0  0
  -26.3392  -19.9296  -23.7143 H   0  0  0  0  0  0
  -27.1689  -18.5355  -23.1985 H   0  0  0  0  0  0
  -28.9529  -26.0391  -17.1651 H   0  0  0  0  0  0
  -29.2551  -24.3312  -16.8577 H   0  0  0  0  0  0
  -29.9857  -25.1182  -18.2628 H   0  0  0  0  0  0
  -19.7783  -21.1110  -23.3822 H   0  0  0  0  0  0
  -21.2177  -20.1143  -23.2779 H   0  0  0  0  0  0
  1  2  1  0  0  0
  1 31  1  0  0  0
  1 32  1  0  0  0
  1 33  1  0  0  0
  2  3  1  0  0  0
  2 30  2  0  0  0
  3  4  1  0  0  0
  4  5  1  0  0  0
  4 34  1  0  0  0
  4 35  1  0  0  0
  5 26  1  0  0  0
  5  6  2  0  0  0
  6  7  1  0  0  0
  6 27  1  0  0  0
  7 10  1  0  0  0
  7  8  1  0  0  0
  8  9  1  0  0  0
  8 25  1  0  0  0
  8 36  1  0  0  0
  9 10  1  0  0  0
  9 12  1  0  0  0
  9 37  1  0  0  0
 10 11  2  0  0  0
 12 13  1  0  0  0
 12 38  1  0  0  0
 13 14  1  0  0  0
 13 24  2  0  0  0
 14 15  1  0  0  0
 14 21  2  3  0  0
 15 20  1  0  0  0
 15 16  2  0  0  0
 16 17  1  0  0  0
 16 39  1  0  0  0
 17 18  1  0  0  0
 18 19  1  0  0  0
 18 20  2  0  0  0
 19 40  1  0  0  0
 19 41  1  0  0  0
 21 22  1  0  0  0
 22 23  1  0  0  0
 23 42  1  0  0  0
 23 43  1  0  0  0
 23 44  1  0  0  0
 25 26  1  0  0  0
 26 45  1  0  0  0
 26 46  1  0  0  0
 27 28  1  0  0  0
 27 29  2  0  0  0
M  CHG  1  28  -1
M  END
> <s_m_entry_id>
27755

> <s_m_entry_name>
data_maestro.6

> <s_m_Source_Path>
C:\Users\olshana1\Git\GramNeg-Accumulation\Gram Negative Permeation - OmpF

> <s_m_Source_File>
data_maestro.csv

> <i_m_Source_File_Index>
6

> <s_m_job_name>
glide-dock_Nicaido_neutral

> <s_i_glide_gridfile>
3POX-grid

> <i_i_glide_lignum>
8

> <i_i_glide_rotatable_bonds>
9

> <r_i_docking_score>
-3.65678961125953

> <r_i_glide_ligand_efficiency>
-0.121892987041984

> <r_i_glide_ligand_efficiency_sa>
-0.378749851155265

> <r_i_glide_ligand_efficiency_ln>
-0.830862443592226

> <r_i_glide_gscore>
-3.65678961125953

> <r_i_glide_lipo>
-0.0280335978989556

> <r_i_glide_hbond>
-0.60446758006391

> <r_i_glide_metal>
0

> <r_i_glide_rewards>
-0.244855574640009

> <r_i_glide_evdw>
-30.009729385376

> <r_i_glide_ecoul>
-8.48932075500488

> <r_i_glide_erotb>
0.680611118548691

> <r_i_glide_esite>
-0.686159394685812

> <r_i_glide_emodel>
-55.1305661506622

> <r_i_glide_energy>
-38.4990501403809

> <r_i_glide_einternal>
4.42028760910034

> <i_i_glide_confnum>
27

> <i_i_glide_posenum>
122

> <r_i_glide_eff_state_penalty>
0

> <r_glide_res:A132_vdw>
-1.48321721505428

> <r_glide_res:A132_coul>
-34.52565112804

> <r_glide_res:A132_hbond>
-0.105721046222511

> <r_glide_res:A132_dist>
2.07110515053234

> <r_glide_res:A132_Eint>
-36.1145893893168

> <r_glide_res:A117_vdw>
-1.70719126994558

> <r_glide_res:A117_coul>
17.6642907153702

> <r_glide_res:A117_hbond>
-0.32

> <r_glide_res:A117_dist>
1.89810312561864

> <r_glide_res:A117_Eint>
15.6370994454246

> <r_glide_res:A113_vdw>
-2.46881774036296

> <r_glide_res:A113_coul>
13.5619517969506

> <r_glide_res:A113_hbond>
0

> <r_glide_res:A113_dist>
2.61061561962698

> <r_glide_res:A113_Eint>
11.0931340565877

> <r_glide_res:A82_vdw>
-1.41676600274253

> <r_glide_res:A82_coul>
-36.7620354617897

> <r_glide_res:A82_hbond>
0

> <r_glide_res:A82_dist>
2.61156100477978

> <r_glide_res:A82_Eint>
-38.1788014645322

> <r_glide_res:A42_vdw>
0.587937286908539

> <r_glide_res:A42_coul>
-44.6815886814223

> <r_glide_res:A42_hbond>
-0.129988909055788

> <r_glide_res:A42_dist>
1.93137998462571

> <r_glide_res:A42_Eint>
-44.2236403035695

> <r_glide_res:A16_vdw>
-0.124012251793578

> <r_glide_res:A16_coul>
-20.5297440438799

> <r_glide_res:A16_hbond>
0

> <r_glide_res:A16_dist>
6.04580894707887

> <r_glide_res:A16_Eint>
-20.6537562956735

> <s_m_source_file>
ligprep_Nicaido_neutral.maegz

> <i_m_source_file_index>
6

> <i_lp_mmshare_version>
58128

> <i_f3d_flags>
0

> <s_lp_Force_Field>
S-OPLS

> <r_lp_Energy>
51.702138

> <b_lp_Chiralities_Consistent>
1

> <s_lp_Variant>
Cefotaxime-2

> <s_epik_input>
W0NIM11DKD1PKU9bQ0gyXUMoPUMxQyg9TylbT0hdKVtDSDJdU1tDQEBIXShOMTIpW0NASF0oQzI9TylbTkhdQyg9TykvQyg9Ti9PW0NIM10pYzNbY0hdc2MobjMpW05IMl0=

> <s_epik_cmdline>
J2VwaWtfcHl0aG9uJywgJy1waHQnLCAnMC4wJywgJy1waCcsICc3LjQnLCAnLW50JywgJy1tYScsICc1MDAnLCAnLWltYWUnLCAnPGluZmlsZS5tYWU+JywgJy1vbWFlJywgJzxvdXRmaWxlLm1hZT4n

> <r_lp_tautomer_probability>
1

> <r_epik_Ionization_Penalty>
  0.0004

> <r_epik_Ionization_Penalty_Charging>
  0.0000

> <r_epik_Ionization_Penalty_Neutral>
  0.0004

> <r_epik_State_Penalty>
  0.0000

> <r_epik_Charging_Adjusted_Penalty>
5.45682606121274e-06

> <i_epik_Tot_Q>
-1

> <i_epik_Tot_abs_Q>
1

> <s_epik_Chemistry_Notes>
This compound has an ester and may undergo hydrolysis at high or low pH. This compound has an imine and may undergo hydrolysis. This compound contains an acetal/aminal-like group ( X-CH(R)-Y where X, Y are N, S, or O) that may be acid/base labile, releasing an aldehyde.

> <s_m_subgroup_title>
glide-dock_Nicaido_neutral_pv1

> <s_m_subgroupid>
glide-dock_Nicaido_neutral_pv1

> <b_m_subgroup_collapsed>
0

$$$$
Cefaclor
                    3D
 Schrodinger Suite 2022-2.
 37 39  0  0  1  0            999 V2000
  -26.8976  -23.5496  -23.2134 O   0  0  0  0  0  0
  -26.1362  -22.6511  -23.4979 C   0  0  0  0  0  0
  -26.1535  -21.1027  -23.4650 C   0  0  2  0  0  0
  -24.6352  -21.2059  -23.7098 C   0  0  1  0  0  0
  -24.8484  -22.6166  -24.0046 N   0  0  0  0  0  0
  -23.8060  -23.4583  -24.4443 C   0  0  0  0  0  0
  -23.9689  -24.9975  -24.2336 C   0  0  0  0  0  0
  -23.6497  -25.4491  -23.1130 O   0  5  0  0  0  0
  -24.3689  -25.6628  -25.2134 O   0  0  0  0  0  0
  -22.6898  -22.9582  -25.0250 C   0  0  0  0  0  0
  -22.3894  -21.4851  -25.2622 C   0  0  0  0  0  0
  -23.8650  -20.4366  -25.1732 S   0  0  0  0  0  0
  -21.3956  -23.9478  -25.6134 Cl  0  0  0  0  0  0
  -26.5174  -20.4600  -22.1888 N   0  0  0  0  0  0
  -26.5772  -20.9802  -20.9443 C   0  0  0  0  0  0
  -27.0697  -20.0447  -19.8311 C   0  0  2  0  0  0
  -25.7915  -19.5677  -19.2134 C   0  0  0  0  0  0
  -25.2155  -20.1939  -18.0786 C   0  0  0  0  0  0
  -24.0218  -19.7212  -17.5010 C   0  0  0  0  0  0
  -23.3690  -18.6052  -18.0510 C   0  0  0  0  0  0
  -23.9120  -17.9736  -19.1828 C   0  0  0  0  0  0
  -25.1089  -18.4503  -19.7514 C   0  0  0  0  0  0
  -27.9689  -20.7496  -18.9064 N   0  0  0  0  0  0
  -26.2714  -22.1412  -20.6615 O   0  0  0  0  0  0
  -26.6658  -20.6516  -24.3158 H   0  0  0  0  0  0
  -24.0263  -21.0747  -22.8119 H   0  0  0  0  0  0
  -21.6802  -21.1515  -24.5046 H   0  0  0  0  0  0
  -21.9164  -21.3464  -26.2350 H   0  0  0  0  0  0
  -26.7765  -19.4846  -22.2656 H   0  0  0  0  0  0
  -27.6205  -19.2074  -20.2642 H   0  0  0  0  0  0
  -25.7059  -21.0463  -17.6311 H   0  0  0  0  0  0
  -23.6139  -20.2110  -16.6293 H   0  0  0  0  0  0
  -22.4574  -18.2339  -17.6062 H   0  0  0  0  0  0
  -23.4087  -17.1225  -19.6135 H   0  0  0  0  0  0
  -25.5137  -17.9496  -20.6190 H   0  0  0  0  0  0
  -28.8752  -20.2877  -18.8135 H   0  0  0  0  0  0
  -28.1806  -21.6772  -19.2418 H   0  0  0  0  0  0
  1  2  2  0  0  0
  2  5  1  0  0  0
  2  3  1  0  0  0
  3  4  1  0  0  0
  3 14  1  0  0  0
  3 25  1  0  0  0
  4 12  1  0  0  0
  4  5  1  0  0  0
  4 26  1  0  0  0
  5  6  1  0  0  0
  6  7  1  0  0  0
  6 10  2  0  0  0
  7  8  1  0  0  0
  7  9  2  0  0  0
 10 11  1  0  0  0
 10 13  1  0  0  0
 11 12  1  0  0  0
 11 27  1  0  0  0
 11 28  1  0  0  0
 14 15  1  0  0  0
 14 29  1  0  0  0
 15 16  1  0  0  0
 15 24  2  0  0  0
 16 17  1  0  0  0
 16 23  1  0  0  0
 16 30  1  0  0  0
 17 22  1  0  0  0
 17 18  2  0  0  0
 18 19  1  0  0  0
 18 31  1  0  0  0
 19 20  2  0  0  0
 19 32  1  0  0  0
 20 21  1  0  0  0
 20 33  1  0  0  0
 21 22  2  0  0  0
 21 34  1  0  0  0
 22 35  1  0  0  0
 23 36  1  0  0  0
 23 37  1  0  0  0
M  CHG  1   8  -1
M  END
> <s_m_entry_id>
27756

> <s_m_entry_name>
data_maestro.15

> <s_m_Source_Path>
C:\Users\olshana1\Git\GramNeg-Accumulation\Gram Negative Permeation - OmpF

> <s_m_Source_File>
data_maestro.csv

> <i_m_Source_File_Index>
15

> <s_m_job_name>
glide-dock_Nicaido_neutral

> <s_i_glide_gridfile>
3POX-grid

> <i_i_glide_lignum>
20

> <i_i_glide_rotatable_bonds>
5

> <r_i_docking_score>
-3.65275189487301

> <r_i_glide_ligand_efficiency>
-0.152197995619709

> <r_i_glide_ligand_efficiency_sa>
-0.439014987103277

> <r_i_glide_ligand_efficiency_ln>
-0.874271142305702

> <r_i_glide_gscore>
-3.76915189487301

> <r_i_glide_lipo>
-0.0868062213398832

> <r_i_glide_hbond>
-0.514422914768643

> <r_i_glide_metal>
0

> <r_i_glide_rewards>
-0.908154966630322

> <r_i_glide_evdw>
-25.1754302978516

> <r_i_glide_ecoul>
-7.35355424880981

> <r_i_glide_erotb>
0.429266414571003

> <r_i_glide_esite>
-0.327229554491117

> <r_i_glide_emodel>
-47.7712791035023

> <r_i_glide_energy>
-32.5289845466614

> <r_i_glide_einternal>
4.75521278381348

> <i_i_glide_confnum>
5

> <i_i_glide_posenum>
111

> <r_i_glide_eff_state_penalty>
0.1164

> <r_glide_res:A132_vdw>
-1.59460595799194

> <r_glide_res:A132_coul>
-38.9985786823906

> <r_glide_res:A132_hbond>
0

> <r_glide_res:A132_dist>
2.94211165448379

> <r_glide_res:A132_Eint>
-40.5931846403826

> <r_glide_res:A117_vdw>
-2.66625037560691

> <r_glide_res:A117_coul>
13.6783613378355

> <r_glide_res:A117_hbond>
0

> <r_glide_res:A117_dist>
2.79347368258989

> <r_glide_res:A117_Eint>
11.0121109622286

> <r_glide_res:A113_vdw>
-1.04857357218486

> <r_glide_res:A113_coul>
11.8470800259442

> <r_glide_res:A113_hbond>
-0.16

> <r_glide_res:A113_dist>
2.05890432090341

> <r_glide_res:A113_Eint>
10.6385064537593

> <r_glide_res:A82_vdw>
0.790552800444634

> <r_glide_res:A82_coul>
-49.0798206224052

> <r_glide_res:A82_hbond>
-0.354422914768643

> <r_glide_res:A82_dist>
1.78976144483371

> <r_glide_res:A82_Eint>
-48.6436907367292

> <r_glide_res:A42_vdw>
-2.4068094888063

> <r_glide_res:A42_coul>
-32.4379500706308

> <r_glide_res:A42_hbond>
0

> <r_glide_res:A42_dist>
2.77055357122374

> <r_glide_res:A42_Eint>
-34.8447595594371

> <r_glide_res:A16_vdw>
-0.134300682479516

> <r_glide_res:A16_coul>
-16.2554330011007

> <r_glide_res:A16_hbond>
0

> <r_glide_res:A16_dist>
5.28040323023581

> <r_glide_res:A16_Eint>
-16.3897336835802

> <s_m_source_file>
ligprep_Nicaido_neutral.maegz

> <i_m_source_file_index>
15

> <i_lp_mmshare_version>
58128

> <i_f3d_flags>
0

> <s_lp_Force_Field>
S-OPLS

> <r_lp_Energy>
48.098991

> <b_lp_Chiralities_Consistent>
1

> <s_lp_Variant>
Cefaclor-1

> <s_epik_input>
UzFbQ0gyXUMoQ2wpPUMoQyg9TylbT0hdKU4oW0NAQEhdMTIpQyg9TylbQ0BIXTJbTkhdQyg9TylbQ0BASF0oW05IMl0pYzNbY0hdW2NIXVtjSF1bY0hdW2NIXTM=

> <s_epik_cmdline>
J2VwaWtfcHl0aG9uJywgJy1waHQnLCAnMC4wJywgJy1waCcsICc3LjQnLCAnLW50JywgJy1tYScsICc1MDAnLCAnLWltYWUnLCAnPGluZmlsZS5tYWU+JywgJy1vbWFlJywgJzxvdXRmaWxlLm1hZT4n

> <r_epik_Ionization_Penalty>
  0.1164

> <r_epik_Ionization_Penalty_Charging>
  0.0000

> <r_epik_Ionization_Penalty_Neutral>
  0.1164

> <r_epik_State_Penalty>
  0.1164

> <r_epik_Charging_Adjusted_Penalty>
0.116403072965043

> <i_epik_Tot_Q>
-1

> <i_epik_Tot_abs_Q>
1

> <s_epik_Chemistry_Notes>
This compound contains an acetal/aminal-like group ( X-CH(R)-Y where X, Y are N, S, or O) that may be acid/base labile, releasing an aldehyde.

> <s_m_subgroup_title>
glide-dock_Nicaido_neutral_pv1

> <s_m_subgroupid>
glide-dock_Nicaido_neutral_pv1

> <b_m_subgroup_collapsed>
0

$$$$
Cefotaxime
                    3D
 Schrodinger Suite 2022-2.
 46 48  0  0  1  0            999 V2000
  -18.8568  -23.0324  -24.6276 C   0  0  0  0  0  0
  -20.0047  -22.5138  -25.4814 C   0  0  0  0  0  0
  -20.9917  -23.4195  -25.6140 O   0  0  0  0  0  0
  -22.1661  -23.1078  -26.3601 C   0  0  0  0  0  0
  -23.2265  -22.4907  -25.4651 C   0  0  0  0  0  0
  -23.9416  -23.2220  -24.5726 C   0  0  0  0  0  0
  -24.8944  -22.6335  -23.7220 N   0  0  0  0  0  0
  -25.5210  -21.3544  -24.0197 C   0  0  1  0  0  0
  -26.2024  -21.4564  -22.6456 C   0  0  2  0  0  0
  -25.7214  -22.9290  -22.6538 C   0  0  0  0  0  0
  -25.9694  -23.9498  -22.0491 O   0  0  0  0  0  0
  -27.6570  -21.2458  -22.6889 N   0  0  0  0  0  0
  -28.6102  -21.9973  -23.2775 C   0  0  0  0  0  0
  -30.0101  -21.5296  -22.9287 C   0  0  0  0  0  0
  -31.0142  -22.6335  -22.8883 C   0  0  0  0  0  0
  -31.7355  -22.8791  -21.7416 C   0  0  0  0  0  0
  -32.7937  -24.2534  -21.9014 S   0  0  0  0  0  0
  -32.2114  -24.4524  -23.5441 C   0  0  0  0  0  0
  -32.6534  -25.4841  -24.3523 N   0  0  0  0  0  0
  -31.3020  -23.5511  -23.9132 N   0  0  0  0  0  0
  -30.2415  -20.3100  -22.6307 N   0  0  0  0  0  0
  -31.5869  -20.0525  -22.3339 O   0  0  0  0  0  0
  -31.6547  -18.7737  -21.7230 C   0  0  0  0  0  0
  -28.3847  -22.9779  -23.9956 O   0  0  0  0  0  0
  -24.2196  -20.1339  -24.3244 S   0  0  0  0  0  0
  -23.4055  -20.9910  -25.6908 C   0  0  0  0  0  0
  -23.7089  -24.7653  -24.4320 C   0  0  0  0  0  0
  -24.3691  -25.4989  -25.2021 O   0  5  0  0  0  0
  -22.8434  -25.1478  -23.6127 O   0  0  0  0  0  0
  -19.9719  -21.3915  -25.9848 O   0  0  0  0  0  0
  -18.3365  -23.8385  -25.1445 H   0  0  0  0  0  0
  -18.1426  -22.2330  -24.4260 H   0  0  0  0  0  0
  -19.2298  -23.4099  -23.6754 H   0  0  0  0  0  0
  -22.5528  -24.0257  -26.8005 H   0  0  0  0  0  0
  -21.9695  -22.4370  -27.1982 H   0  0  0  0  0  0
  -26.1993  -21.4315  -24.8714 H   0  0  0  0  0  0
  -25.7079  -20.8347  -21.8977 H   0  0  0  0  0  0
  -27.9948  -20.4552  -22.1531 H   0  0  0  0  0  0
  -31.7057  -22.3242  -20.8125 H   0  0  0  0  0  0
  -32.5179  -25.3950  -25.3489 H   0  0  0  0  0  0
  -33.5087  -25.9560  -24.0960 H   0  0  0  0  0  0
  -32.6842  -18.5518  -21.4448 H   0  0  0  0  0  0
  -31.0517  -18.7349  -20.8145 H   0  0  0  0  0  0
  -31.3129  -17.9884  -22.3990 H   0  0  0  0  0  0
  -22.4391  -20.5131  -25.8445 H   0  0  0  0  0  0
  -23.9834  -20.8434  -26.6037 H   0  0  0  0  0  0
  1  2  1  0  0  0
  1 31  1  0  0  0
  1 32  1  0  0  0
  1 33  1  0  0  0
  2  3  1  0  0  0
  2 30  2  0  0  0
  3  4  1  0  0  0
  4  5  1  0  0  0
  4 34  1  0  0  0
  4 35  1  0  0  0
  5 26  1  0  0  0
  5  6  2  0  0  0
  6  7  1  0  0  0
  6 27  1  0  0  0
  7 10  1  0  0  0
  7  8  1  0  0  0
  8  9  1  0  0  0
  8 25  1  0  0  0
  8 36  1  0  0  0
  9 10  1  0  0  0
  9 12  1  0  0  0
  9 37  1  0  0  0
 10 11  2  0  0  0
 12 13  1  0  0  0
 12 38  1  0  0  0
 13 14  1  0  0  0
 13 24  2  0  0  0
 14 15  1  0  0  0
 14 21  2  3  0  0
 15 20  1  0  0  0
 15 16  2  0  0  0
 16 17  1  0  0  0
 16 39  1  0  0  0
 17 18  1  0  0  0
 18 19  1  0  0  0
 18 20  2  0  0  0
 19 40  1  0  0  0
 19 41  1  0  0  0
 21 22  1  0  0  0
 22 23  1  0  0  0
 23 42  1  0  0  0
 23 43  1  0  0  0
 23 44  1  0  0  0
 25 26  1  0  0  0
 26 45  1  0  0  0
 26 46  1  0  0  0
 27 28  1  0  0  0
 27 29  2  0  0  0
M  CHG  1  28  -1
M  END
> <s_m_entry_id>
27757

> <s_m_entry_name>
data_maestro.6

> <s_m_Source_Path>
C:\Users\olshana1\Git\GramNeg-Accumulation\Gram Negative Permeation - OmpF

> <s_m_Source_File>
data_maestro.csv

> <i_m_Source_File_Index>
6

> <s_m_job_name>
glide-dock_Nicaido_neutral

> <s_i_glide_gridfile>
3POX-grid

> <i_i_glide_lignum>
7

> <i_i_glide_rotatable_bonds>
9

> <r_i_docking_score>
-3.63738428063934

> <r_i_glide_ligand_efficiency>
-0.121246142687978

> <r_i_glide_ligand_efficiency_sa>
-0.376739955354483

> <r_i_glide_ligand_efficiency_ln>
-0.826453341037308

> <r_i_glide_gscore>
-3.63738428063934

> <r_i_glide_lipo>
0

> <r_i_glide_hbond>
-0.530584072379657

> <r_i_glide_metal>
0

> <r_i_glide_rewards>
-0.301120667698051

> <r_i_glide_evdw>
-29.0187358856201

> <r_i_glide_ecoul>
-9.78940868377686

> <r_i_glide_erotb>
0.680611118548691

> <r_i_glide_esite>
-0.566942562262788

> <r_i_glide_emodel>
-54.8236823405098

> <r_i_glide_energy>
-38.808144569397

> <r_i_glide_einternal>
7.18721532821655

> <i_i_glide_confnum>
237

> <i_i_glide_posenum>
117

> <r_i_glide_eff_state_penalty>
0

> <r_glide_res:A132_vdw>
-1.4185741300043

> <r_glide_res:A132_coul>
-36.2721384564021

> <r_glide_res:A132_hbond>
-0.112260743433539

> <r_glide_res:A132_dist>
2.10753044418411

> <r_glide_res:A132_Eint>
-37.8029733298399

> <r_glide_res:A117_vdw>
-2.23015277176369

> <r_glide_res:A117_coul>
19.5731526468896

> <r_glide_res:A117_hbond>
0

> <r_glide_res:A117_dist>
3.49872948050076

> <r_glide_res:A117_Eint>
17.3429998751259

> <r_glide_res:A113_vdw>
-2.93484159325001

> <r_glide_res:A113_coul>
11.1594210690846

> <r_glide_res:A113_hbond>
0

> <r_glide_res:A113_dist>
2.44745963656783

> <r_glide_res:A113_Eint>
8.22457947583455

> <r_glide_res:A82_vdw>
-3.59673566161484

> <r_glide_res:A82_coul>
-49.2300980709643

> <r_glide_res:A82_hbond>
-0.218323328946119

> <r_glide_res:A82_dist>
2.01716799591298

> <r_glide_res:A82_Eint>
-53.0451570615253

> <r_glide_res:A42_vdw>
-3.62557123532817

> <r_glide_res:A42_coul>
-35.9925862598589

> <r_glide_res:A42_hbond>
0

> <r_glide_res:A42_dist>
2.13176052175129

> <r_glide_res:A42_Eint>
-39.6181574951871

> <r_glide_res:A16_vdw>
-0.408631041886389

> <r_glide_res:A16_coul>
-18.8610137280446

> <r_glide_res:A16_hbond>
0

> <r_glide_res:A16_dist>
4.89382985542823

> <r_glide_res:A16_Eint>
-19.269644769931

> <s_m_source_file>
ligprep_Nicaido_neutral.maegz

> <i_m_source_file_index>
6

> <i_lp_mmshare_version>
58128

> <i_f3d_flags>
0

> <s_lp_Force_Field>
S-OPLS

> <r_lp_Energy>
53.728996

> <b_lp_Chiralities_Consistent>
1

> <s_lp_Variant>
Cefotaxime-1

> <s_epik_input>
W0NIM11DKD1PKU9bQ0gyXUMoPUMxQyg9TylbT0hdKVtDSDJdU1tDQEBIXShOMTIpW0NASF0oQzI9TylbTkhdQyg9TykvQyg9Ti9PW0NIM10pYzNbY0hdc2MobjMpW05IMl0=

> <s_epik_cmdline>
J2VwaWtfcHl0aG9uJywgJy1waHQnLCAnMC4wJywgJy1waCcsICc3LjQnLCAnLW50JywgJy1tYScsICc1MDAnLCAnLWltYWUnLCAnPGluZmlsZS5tYWU+JywgJy1vbWFlJywgJzxvdXRmaWxlLm1hZT4n

> <r_lp_tautomer_probability>
1

> <r_epik_Ionization_Penalty>
  0.0004

> <r_epik_Ionization_Penalty_Charging>
  0.0000

> <r_epik_Ionization_Penalty_Neutral>
  0.0004

> <r_epik_State_Penalty>
  0.0000

> <r_epik_Charging_Adjusted_Penalty>
5.45682606121274e-06

> <i_epik_Tot_Q>
-1

> <i_epik_Tot_abs_Q>
1

> <s_epik_Chemistry_Notes>
This compound has an ester and may undergo hydrolysis at high or low pH. This compound has an imine and may undergo hydrolysis. This compound contains an acetal/aminal-like group ( X-CH(R)-Y where X, Y are N, S, or O) that may be acid/base labile, releasing an aldehyde.

> <s_m_subgroup_title>
glide-dock_Nicaido_neutral_pv1

> <s_m_subgroupid>
glide-dock_Nicaido_neutral_pv1

> <b_m_subgroup_collapsed>
0

$$$$
Nocardicin B
                    3D
 Schrodinger Suite 2022-2.
 59 61  0  0  1  0            999 V2000
  -19.9702  -23.7798  -17.9463 O   0  0  0  0  0  0
  -20.8266  -24.3491  -18.5891 C   0  0  0  0  0  0
  -22.1534  -25.0537  -18.2788 C   0  0  2  0  0  0
  -22.1994  -25.3544  -19.7829 C   0  0  0  0  0  0
  -20.9455  -24.6063  -19.9344 N   0  0  0  0  0  0
  -20.1100  -24.2650  -21.0877 C   0  0  2  0  0  0
  -20.3256  -22.8547  -21.5581 C   0  0  0  0  0  0
  -19.2606  -22.1696  -22.1910 C   0  0  0  0  0  0
  -19.4073  -20.8581  -22.6804 C   0  0  0  0  0  0
  -20.6363  -20.1911  -22.5480 C   0  0  0  0  0  0
  -21.7120  -20.8416  -21.9142 C   0  0  0  0  0  0
  -21.5537  -22.1558  -21.4262 C   0  0  0  0  0  0
  -20.7688  -18.9246  -23.0399 O   0  0  0  0  0  0
  -20.4142  -25.1494  -22.3112 C   0  0  0  0  0  0
  -21.5691  -25.1482  -22.8070 O   0  5  0  0  0  0
  -19.4849  -25.8719  -22.7351 O   0  0  0  0  0  0
  -23.1885  -24.1172  -17.8587 N   0  0  0  0  0  0
  -24.5053  -24.2864  -18.0419 C   0  0  0  0  0  0
  -25.2828  -22.9827  -17.9512 C   0  0  0  0  0  0
  -26.2647  -22.8242  -19.0617 C   0  0  0  0  0  0
  -27.5695  -22.3505  -18.7967 C   0  0  0  0  0  0
  -28.4962  -22.1784  -19.8435 C   0  0  0  0  0  0
  -28.1425  -22.4687  -21.1767 C   0  0  0  0  0  0
  -26.8480  -22.9468  -21.4486 C   0  0  0  0  0  0
  -25.9142  -23.1063  -20.4063 C   0  0  0  0  0  0
  -29.0219  -22.3042  -22.2219 O   0  0  0  0  0  0
  -29.6454  -21.0227  -22.3190 C   0  0  0  0  0  0
  -28.6573  -19.9715  -22.8732 C   0  0  0  0  0  0
  -28.6327  -19.8147  -24.4151 C   0  0  2  0  0  0
  -28.4342  -21.1486  -25.1673 C   0  0  0  0  0  0
  -29.2186  -21.4120  -26.1087 O   0  5  0  0  0  0
  -27.4976  -21.8995  -24.8137 O   0  0  0  0  0  0
  -27.5642  -18.8724  -24.8071 N   0  3  0  0  0  0
  -25.1690  -22.0666  -17.0650 N   0  0  0  0  0  0
  -24.2699  -22.4316  -16.0114 O   0  0  0  0  0  0
  -25.0235  -25.3477  -18.3972 O   0  0  0  0  0  0
  -22.0668  -25.9437  -17.6561 H   0  0  0  0  0  0
  -22.1061  -26.4176  -20.0121 H   0  0  0  0  0  0
  -23.0334  -24.9156  -20.3326 H   0  0  0  0  0  0
  -19.0676  -24.4114  -20.7991 H   0  0  0  0  0  0
  -18.3081  -22.6646  -22.3145 H   0  0  0  0  0  0
  -18.5754  -20.3659  -23.1640 H   0  0  0  0  0  0
  -22.6636  -20.3420  -21.8033 H   0  0  0  0  0  0
  -22.3997  -22.6355  -20.9583 H   0  0  0  0  0  0
  -21.6269  -18.5420  -22.9320 H   0  0  0  0  0  0
  -22.8915  -23.2024  -17.5411 H   0  0  0  0  0  0
  -27.8710  -22.1131  -17.7854 H   0  0  0  0  0  0
  -29.4907  -21.8247  -19.6146 H   0  0  0  0  0  0
  -26.5590  -23.1503  -22.4684 H   0  0  0  0  0  0
  -24.9162  -23.4366  -20.6550 H   0  0  0  0  0  0
  -30.0439  -20.6894  -21.3612 H   0  0  0  0  0  0
  -30.5134  -21.1042  -22.9737 H   0  0  0  0  0  0
  -27.6517  -20.1624  -22.4934 H   0  0  0  0  0  0
  -28.9368  -19.0040  -22.4508 H   0  0  0  0  0  0
  -29.5837  -19.3777  -24.7239 H   0  0  0  0  0  0
  -27.6572  -18.6157  -25.7788 H   0  0  0  0  0  0
  -27.6110  -18.0374  -24.2366 H   0  0  0  0  0  0
  -24.4298  -21.7486  -15.3738 H   0  0  0  0  0  0
  -26.6678  -19.3142  -24.6645 H   0  0  0  0  0  0
  1  2  2  0  0  0
  2  5  1  0  0  0
  2  3  1  0  0  0
  3  4  1  0  0  0
  3 17  1  0  0  0
  3 37  1  0  0  0
  4  5  1  0  0  0
  4 38  1  0  0  0
  4 39  1  0  0  0
  5  6  1  0  0  0
  6  7  1  0  0  0
  6 14  1  0  0  0
  6 40  1  0  0  0
  7 12  1  0  0  0
  7  8  2  0  0  0
  8  9  1  0  0  0
  8 41  1  0  0  0
  9 10  2  0  0  0
  9 42  1  0  0  0
 10 11  1  0  0  0
 10 13  1  0  0  0
 11 12  2  0  0  0
 11 43  1  0  0  0
 12 44  1  0  0  0
 13 45  1  0  0  0
 14 15  1  0  0  0
 14 16  2  0  0  0
 17 18  1  0  0  0
 17 46  1  0  0  0
 18 19  1  0  0  0
 18 36  2  0  0  0
 19 20  1  0  0  0
 19 34  2  3  0  0
 20 25  1  0  0  0
 20 21  2  0  0  0
 21 22  1  0  0  0
 21 47  1  0  0  0
 22 23  2  0  0  0
 22 48  1  0  0  0
 23 24  1  0  0  0
 23 26  1  0  0  0
 24 25  2  0  0  0
 24 49  1  0  0  0
 25 50  1  0  0  0
 26 27  1  0  0  0
 27 28  1  0  0  0
 27 51  1  0  0  0
 27 52  1  0  0  0
 28 29  1  0  0  0
 28 53  1  0  0  0
 28 54  1  0  0  0
 29 30  1  0  0  0
 29 33  1  0  0  0
 29 55  1  0  0  0
 30 31  1  0  0  0
 30 32  2  0  0  0
 33 56  1  0  0  0
 33 57  1  0  0  0
 33 59  1  0  0  0
 34 35  1  0  0  0
 35 58  1  0  0  0
M  CHG  3  15  -1  31  -1  33   1
M  END
> <s_m_entry_id>
27758

> <s_m_entry_name>
data_maestro.29

> <s_m_Source_Path>
C:\Users\olshana1\Git\GramNeg-Accumulation\Gram Negative Permeation - OmpF

> <s_m_Source_File>
data_maestro.csv

> <i_m_Source_File_Index>
29

> <s_m_job_name>
glide-dock_Nicaido_neutral

> <s_i_glide_gridfile>
3POX-grid

> <i_i_glide_lignum>
37

> <i_i_glide_rotatable_bonds>
14

> <r_i_docking_score>
-3.62842032103616

> <r_i_glide_ligand_efficiency>
-0.100789453362116

> <r_i_glide_ligand_efficiency_sa>
-0.332799442060033

> <r_i_glide_ligand_efficiency_ln>
-0.791623285461615

> <r_i_glide_gscore>
-3.62842032103616

> <r_i_glide_lipo>
0

> <r_i_glide_hbond>
-0.884941827599762

> <r_i_glide_metal>
0

> <r_i_glide_rewards>
0.8296928301352

> <r_i_glide_evdw>
-26.3390998840332

> <r_i_glide_ecoul>
-17.5025634765625

> <r_i_glide_erotb>
0.900147327125679

> <r_i_glide_esite>
-0.530979135011242

> <r_i_glide_emodel>
-55.144650521151

> <r_i_glide_energy>
-43.8416633605957

> <r_i_glide_einternal>
16.2459182739258

> <i_i_glide_confnum>
198

> <i_i_glide_posenum>
139

> <r_i_glide_eff_state_penalty>
0

> <r_glide_res:A132_vdw>
-2.73896613376906

> <r_glide_res:A132_coul>
-31.9184647636496

> <r_glide_res:A132_hbond>
0

> <r_glide_res:A132_dist>
2.52342801431088

> <r_glide_res:A132_Eint>
-34.6574308974187

> <r_glide_res:A117_vdw>
-2.3727642458444

> <r_glide_res:A117_coul>
-10.9572524340797

> <r_glide_res:A117_hbond>
0

> <r_glide_res:A117_dist>
2.14088822302569

> <r_glide_res:A117_Eint>
-13.3300166799241

> <r_glide_res:A113_vdw>
-1.78077203280932

> <r_glide_res:A113_coul>
9.68912205383543

> <r_glide_res:A113_hbond>
0

> <r_glide_res:A113_dist>
2.29536713438441

> <r_glide_res:A113_Eint>
7.90835002102611

> <r_glide_res:A82_vdw>
-1.40448224403652

> <r_glide_res:A82_coul>
-33.8800125626295

> <r_glide_res:A82_hbond>
0

> <r_glide_res:A82_dist>
2.4983331407092

> <r_glide_res:A82_Eint>
-35.284494806666

> <r_glide_res:A42_vdw>
0.0123769735295427

> <r_glide_res:A42_coul>
-44.9631106397142

> <r_glide_res:A42_hbond>
-0.247303546308317

> <r_glide_res:A42_dist>
1.85573572759628

> <r_glide_res:A42_Eint>
-45.198037212493

> <r_glide_res:A16_vdw>
-0.732891131332911

> <r_glide_res:A16_coul>
-26.218716705233

> <r_glide_res:A16_hbond>
-0.103255994518017

> <r_glide_res:A16_dist>
2.29348801096397

> <r_glide_res:A16_Eint>
-27.054863831084

> <s_m_source_file>
ligprep_Nicaido_neutral.maegz

> <i_m_source_file_index>
29

> <i_lp_mmshare_version>
58128

> <i_f3d_flags>
0

> <s_lp_Force_Field>
S-OPLS

> <r_lp_Energy>
65.715273

> <b_lp_Chiralities_Consistent>
1

> <s_lp_Variant>
Nocardicin B-2

> <s_epik_input>
W2NIXTFbY0hdYyhbT0hdKVtjSF1bY0hdYzFbQ0BIXShDKD1PKVtPSF0pTjJbQ0gyXVtDQEBIXShDMj1PKVtOSF1DKD1PKS9DKD1OL1tPSF0pYzNbY0hdW2NIXWMoW2NIXVtjSF0zKU9bQ0gyXVtDSDJdW0NAQEhdKFtOSDJdKUMoPU8pW09IXQ==

> <s_epik_cmdline>
J2VwaWtfcHl0aG9uJywgJy1waHQnLCAnMC4wJywgJy1waCcsICc3LjQnLCAnLW50JywgJy1tYScsICc1MDAnLCAnLWltYWUnLCAnPGluZmlsZS5tYWU+JywgJy1vbWFlJywgJzxvdXRmaWxlLm1hZT4n

> <r_lp_tautomer_probability>
1

> <r_epik_Ionization_Penalty>
  0.0116

> <r_epik_Ionization_Penalty_Charging>
  0.0086

> <r_epik_Ionization_Penalty_Neutral>
  0.0030

> <r_epik_State_Penalty>
  0.0000

> <r_epik_Charging_Adjusted_Penalty>
0.0085560600321308

> <i_epik_Tot_Q>
-1

> <i_epik_Tot_abs_Q>
3

> <s_epik_Chemistry_Notes>
This compound has an imine and may undergo hydrolysis.

> <s_m_subgroup_title>
glide-dock_Nicaido_neutral_pv1

> <s_m_subgroupid>
glide-dock_Nicaido_neutral_pv1

> <b_m_subgroup_collapsed>
0

$$$$
Piperacillin
                    3D
 Schrodinger Suite 2022-2.
 62 65  0  0  1  0            999 V2000
  -19.2833  -22.8722  -24.5737 C   0  0  0  0  0  0
  -20.1957  -22.6020  -25.7778 C   0  0  0  0  0  0
  -21.5451  -22.2221  -25.3484 N   0  0  0  0  0  0
  -21.8151  -20.7900  -25.2675 C   0  0  0  0  0  0
  -22.6837  -20.4706  -24.0430 C   0  0  0  0  0  0
  -23.8684  -21.3562  -23.9190 N   0  0  0  0  0  0
  -23.8364  -22.6235  -24.4441 C   0  0  0  0  0  0
  -22.5018  -23.1344  -25.0694 C   0  0  0  0  0  0
  -22.3690  -24.3490  -25.2459 O   0  0  0  0  0  0
  -24.7626  -23.4454  -24.4130 O   0  0  0  0  0  0
  -24.9959  -20.8690  -23.3220 C   0  0  0  0  0  0
  -24.7642  -19.9118  -22.3937 N   0  0  0  0  0  0
  -25.6150  -19.4343  -21.2854 C   0  0  2  0  0  0
  -24.7854  -19.2231  -20.0542 C   0  0  0  0  0  0
  -23.6619  -20.0250  -19.7275 C   0  0  0  0  0  0
  -22.9061  -19.7944  -18.5606 C   0  0  0  0  0  0
  -23.2587  -18.7515  -17.6860 C   0  0  0  0  0  0
  -24.3682  -17.9440  -17.9851 C   0  0  0  0  0  0
  -25.1148  -18.1816  -19.1550 C   0  0  0  0  0  0
  -26.7553  -20.3894  -20.8632 C   0  0  0  0  0  0
  -28.0018  -19.9957  -21.1589 N   0  0  0  0  0  0
  -29.1697  -20.8796  -21.2160 C   0  0  1  0  0  0
  -30.2289  -20.3063  -22.1737 C   0  0  2  0  0  0
  -29.7723  -21.2686  -23.1624 N   0  0  0  0  0  0
  -29.0404  -22.0064  -22.2714 C   0  0  0  0  0  0
  -28.4821  -23.0804  -22.3812 O   0  0  0  0  0  0
  -29.6302  -21.0120  -24.5814 C   0  0  2  0  0  0
  -29.5281  -19.4449  -24.7071 C   0  0  0  0  0  0
  -28.0609  -19.0213  -24.8991 C   0  0  0  0  0  0
  -30.1021  -18.7477  -23.1111 S   0  0  0  0  0  0
  -30.3597  -18.8252  -25.8508 C   0  0  0  0  0  0
  -30.7356  -21.7163  -25.3884 C   0  0  0  0  0  0
  -31.9192  -21.6230  -25.0016 O   0  5  0  0  0  0
  -30.3689  -22.3385  -26.4133 O   0  0  0  0  0  0
  -26.4998  -21.4882  -20.3636 O   0  0  0  0  0  0
  -26.1268  -21.3020  -23.5527 O   0  0  0  0  0  0
  -18.2806  -23.1448  -24.9035 H   0  0  0  0  0  0
  -19.1945  -21.9876  -23.9421 H   0  0  0  0  0  0
  -19.6647  -23.6869  -23.9580 H   0  0  0  0  0  0
  -20.2295  -23.4891  -26.4106 H   0  0  0  0  0  0
  -19.7648  -21.8178  -26.4022 H   0  0  0  0  0  0
  -20.8900  -20.2134  -25.2154 H   0  0  0  0  0  0
  -22.3239  -20.4791  -26.1816 H   0  0  0  0  0  0
  -22.9704  -19.4189  -24.1248 H   0  0  0  0  0  0
  -22.0836  -20.5638  -23.1356 H   0  0  0  0  0  0
  -23.8139  -19.5795  -22.3407 H   0  0  0  0  0  0
  -26.0368  -18.4831  -21.6085 H   0  0  0  0  0  0
  -23.3770  -20.8426  -20.3721 H   0  0  0  0  0  0
  -22.0573  -20.4221  -18.3334 H   0  0  0  0  0  0
  -22.6871  -18.5721  -16.7867 H   0  0  0  0  0  0
  -24.6534  -17.1469  -17.3132 H   0  0  0  0  0  0
  -25.9725  -17.5552  -19.3505 H   0  0  0  0  0  0
  -28.1307  -19.0687  -21.5443 H   0  0  0  0  0  0
  -29.5698  -21.1691  -20.2440 H   0  0  0  0  0  0
  -31.2541  -20.4888  -21.8446 H   0  0  0  0  0  0
  -28.6866  -21.4586  -24.8992 H   0  0  0  0  0  0
  -27.5995  -19.5215  -25.7502 H   0  0  0  0  0  0
  -27.4693  -19.2414  -24.0135 H   0  0  0  0  0  0
  -27.9719  -17.9496  -25.0671 H   0  0  0  0  0  0
  -30.0562  -19.2165  -26.8211 H   0  0  0  0  0  0
  -31.4264  -19.0121  -25.7232 H   0  0  0  0  0  0
  -30.2337  -17.7416  -25.8825 H   0  0  0  0  0  0
  1  2  1  0  0  0
  1 37  1  0  0  0
  1 38  1  0  0  0
  1 39  1  0  0  0
  2  3  1  0  0  0
  2 40  1  0  0  0
  2 41  1  0  0  0
  3  8  1  0  0  0
  3  4  1  0  0  0
  4  5  1  0  0  0
  4 42  1  0  0  0
  4 43  1  0  0  0
  5  6  1  0  0  0
  5 44  1  0  0  0
  5 45  1  0  0  0
  6  7  1  0  0  0
  6 11  1  0  0  0
  7  8  1  0  0  0
  7 10  2  0  0  0
  8  9  2  0  0  0
 11 12  1  0  0  0
 11 36  2  0  0  0
 12 13  1  0  0  0
 12 46  1  0  0  0
 13 14  1  0  0  0
 13 20  1  0  0  0
 13 47  1  0  0  0
 14 19  1  0  0  0
 14 15  2  0  0  0
 15 16  1  0  0  0
 15 48  1  0  0  0
 16 17  2  0  0  0
 16 49  1  0  0  0
 17 18  1  0  0  0
 17 50  1  0  0  0
 18 19  2  0  0  0
 18 51  1  0  0  0
 19 52  1  0  0  0
 20 21  1  0  0  0
 20 35  2  0  0  0
 21 22  1  0  0  0
 21 53  1  0  0  0
 22 25  1  0  0  0
 22 23  1  0  0  0
 22 54  1  0  0  0
 23 30  1  0  0  0
 23 24  1  0  0  0
 23 55  1  0  0  0
 24 25  1  0  0  0
 24 27  1  0  0  0
 25 26  2  0  0  0
 27 28  1  0  0  0
 27 32  1  0  0  0
 27 56  1  0  0  0
 28 29  1  0  0  0
 28 30  1  0  0  0
 28 31  1  0  0  0
 29 57  1  0  0  0
 29 58  1  0  0  0
 29 59  1  0  0  0
 31 60  1  0  0  0
 31 61  1  0  0  0
 31 62  1  0  0  0
 32 33  1  0  0  0
 32 34  2  0  0  0
M  CHG  1  33  -1
M  END
> <s_m_entry_id>
27759

> <s_m_entry_name>
data_maestro.11

> <s_m_Source_Path>
C:\Users\olshana1\Git\GramNeg-Accumulation\Gram Negative Permeation - OmpF

> <s_m_Source_File>
data_maestro.csv

> <i_m_Source_File_Index>
11

> <s_m_job_name>
glide-dock_Nicaido_neutral

> <s_i_glide_gridfile>
3POX-grid

> <i_i_glide_lignum>
15

> <i_i_glide_rotatable_bonds>
9

> <r_i_docking_score>
-3.61337900181791

> <r_i_glide_ligand_efficiency>
-0.100371638939386

> <r_i_glide_ligand_efficiency_sa>
-0.33141984923429

> <r_i_glide_ligand_efficiency_ln>
-0.788341675977677

> <r_i_glide_gscore>
-3.61337900181791

> <r_i_glide_lipo>
-0.103053729636444

> <r_i_glide_hbond>
-0.370208193141065

> <r_i_glide_metal>
0

> <r_i_glide_rewards>
0.0407784661350387

> <r_i_glide_evdw>
-33.5562629699707

> <r_i_glide_ecoul>
-9.2701416015625

> <r_i_glide_erotb>
0.461572583116075

> <r_i_glide_esite>
-0.574133739558606

> <r_i_glide_emodel>
-55.1848889052416

> <r_i_glide_energy>
-42.8264045715332

> <r_i_glide_einternal>
14.8573017120361

> <i_i_glide_confnum>
219

> <i_i_glide_posenum>
223

> <r_i_glide_eff_state_penalty>
0

> <r_glide_res:A132_vdw>
-0.993587676912603

> <r_glide_res:A132_coul>
-29.1584961369021

> <r_glide_res:A132_hbond>
0

> <r_glide_res:A132_dist>
3.23446448273172

> <r_glide_res:A132_Eint>
-30.1520838138147

> <r_glide_res:A117_vdw>
-6.40656085881389

> <r_glide_res:A117_coul>
13.5248339047954

> <r_glide_res:A117_hbond>
0

> <r_glide_res:A117_dist>
2.1808685554299

> <r_glide_res:A117_Eint>
7.11827304598153

> <r_glide_res:A113_vdw>
-2.55665492675671

> <r_glide_res:A113_coul>
19.8198503466986

> <r_glide_res:A113_hbond>
0

> <r_glide_res:A113_dist>
2.43297199984744

> <r_glide_res:A113_Eint>
17.2631954199419

> <r_glide_res:A82_vdw>
-1.98917035295621

> <r_glide_res:A82_coul>
-40.0945008860939

> <r_glide_res:A82_hbond>
0

> <r_glide_res:A82_dist>
2.83273587304033

> <r_glide_res:A82_Eint>
-42.0836712390501

> <r_glide_res:A42_vdw>
-0.95245355688279

> <r_glide_res:A42_coul>
-45.8103819044507

> <r_glide_res:A42_hbond>
-0.144080226776461

> <r_glide_res:A42_dist>
1.95594444439824

> <r_glide_res:A42_Eint>
-46.9069156881099

> <r_glide_res:A16_vdw>
-0.981790232739102

> <r_glide_res:A16_coul>
-47.12273743739

> <r_glide_res:A16_hbond>
-0.160598126958444

> <r_glide_res:A16_dist>
2.07455251194691

> <r_glide_res:A16_Eint>
-48.2651257970875

> <s_m_source_file>
ligprep_Nicaido_neutral.maegz

> <i_m_source_file_index>
11

> <i_lp_mmshare_version>
58128

> <i_f3d_flags>
0

> <s_lp_Force_Field>
S-OPLS

> <r_lp_Energy>
67.572455

> <b_lp_Chiralities_Consistent>
1

> <s_lp_Variant>
Piperacillin-1

> <s_epik_input>
W0NIM11bQ0gyXU4xW0NIMl1bQ0gyXU4oQyg9TylDMT1PKUMoPU8pW05IXVtDQEhdKGMyW2NIXVtjSF1bY0hdW2NIXVtjSF0yKUMoPU8pW05IXVtDQEBIXTNDKD1PKU4oW0NAQEhdMzQpW0NASF0oQyhTNCkoW0NIM10pW0NIM10pQyg9TylbT0hd

> <s_epik_cmdline>
J2VwaWtfcHl0aG9uJywgJy1waHQnLCAnMC4wJywgJy1waCcsICc3LjQnLCAnLW50JywgJy1tYScsICc1MDAnLCAnLWltYWUnLCAnPGluZmlsZS5tYWU+JywgJy1vbWFlJywgJzxvdXRmaWxlLm1hZT4n

> <r_lp_tautomer_probability>
1

> <r_epik_Ionization_Penalty>
  0.0049

> <r_epik_Ionization_Penalty_Charging>
  0.0000

> <r_epik_Ionization_Penalty_Neutral>
  0.0049

> <r_epik_State_Penalty>
  0.0000

> <r_epik_Charging_Adjusted_Penalty>
1.13204004886318e-05

> <i_epik_Tot_Q>
-1

> <i_epik_Tot_abs_Q>
1

> <s_epik_Chemistry_Notes>
This compound contains an acetal/aminal-like group ( X-CH(R)-Y where X, Y are N, S, or O) that may be acid/base labile, releasing an aldehyde.

> <s_m_subgroup_title>
glide-dock_Nicaido_neutral_pv1

> <s_m_subgroupid>
glide-dock_Nicaido_neutral_pv1

> <b_m_subgroup_collapsed>
0

$$$$
Cefmetazole
                    3D
 Schrodinger Suite 2022-2.
 46 48  0  0  1  0            999 V2000
  -23.6193  -22.0011  -15.7018 C   0  0  0  0  0  0
  -23.2721  -22.9624  -16.7279 N   0  0  0  0  0  0
  -23.6937  -23.0915  -17.9918 C   0  0  0  0  0  0
  -24.8412  -21.9848  -18.7513 S   0  0  0  0  0  0
  -24.1295  -21.9277  -20.4243 C   0  0  0  0  0  0
  -25.0792  -21.3084  -21.4469 C   0  0  0  0  0  0
  -26.0031  -22.0291  -22.1347 C   0  0  0  0  0  0
  -26.9235  -21.4633  -23.0320 N   0  0  0  0  0  0
  -27.1874  -20.0390  -23.1029 C   0  0  2  0  0  0
  -28.0708  -20.3503  -24.3378 C   0  0  1  0  0  0
  -27.4519  -20.0987  -25.5949 O   0  0  0  0  0  0
  -27.5243  -18.7496  -26.0133 C   0  0  0  0  0  0
  -27.8827  -21.8369  -23.9579 C   0  0  0  0  0  0
  -28.3213  -22.9139  -24.3105 O   0  0  0  0  0  0
  -29.4542  -19.8771  -24.2103 N   0  0  0  0  0  0
  -30.4739  -20.2373  -25.0071 C   0  0  0  0  0  0
  -31.8701  -19.7594  -24.6084 C   0  0  0  0  0  0
  -32.0558  -17.9532  -24.4931 S   0  0  0  0  0  0
  -31.5875  -17.3901  -26.1560 C   0  0  0  0  0  0
  -32.2514  -18.1615  -27.2150 C   0  0  0  0  0  0
  -32.7695  -18.7718  -28.0521 N   0  0  0  0  0  0
  -30.3363  -20.9388  -26.0133 O   0  0  0  0  0  0
  -25.5685  -19.2040  -23.1897 S   0  0  0  0  0  0
  -24.9293  -19.7992  -21.6049 C   0  0  0  0  0  0
  -26.1565  -23.5519  -21.9476 C   0  0  0  0  0  0
  -25.2536  -24.2766  -22.4231 O   0  5  0  0  0  0
  -27.2056  -23.9504  -21.3976 O   0  0  0  0  0  0
  -23.1303  -24.1553  -18.5577 N   0  0  0  0  0  0
  -22.3032  -24.6634  -17.5747 N   0  0  0  0  0  0
  -22.3687  -23.9476  -16.4909 N   0  0  0  0  0  0
  -23.2606  -21.0116  -15.9859 H   0  0  0  0  0  0
  -24.7031  -21.9661  -15.5793 H   0  0  0  0  0  0
  -23.1682  -22.2838  -14.7518 H   0  0  0  0  0  0
  -23.8452  -22.9297  -20.7379 H   0  0  0  0  0  0
  -23.1954  -21.3666  -20.3896 H   0  0  0  0  0  0
  -27.7526  -19.7074  -22.2290 H   0  0  0  0  0  0
  -26.7790  -18.5883  -26.7912 H   0  0  0  0  0  0
  -28.5013  -18.5172  -26.4322 H   0  0  0  0  0  0
  -27.3273  -18.0566  -25.1951 H   0  0  0  0  0  0
  -29.6570  -19.2820  -23.4181 H   0  0  0  0  0  0
  -32.1225  -20.1908  -23.6393 H   0  0  0  0  0  0
  -32.6040  -20.1458  -25.3172 H   0  0  0  0  0  0
  -30.5081  -17.4518  -26.2890 H   0  0  0  0  0  0
  -31.8809  -16.3496  -26.2731 H   0  0  0  0  0  0
  -25.4506  -19.3017  -20.7872 H   0  0  0  0  0  0
  -23.8802  -19.5090  -21.5453 H   0  0  0  0  0  0
  1  2  1  0  0  0
  1 31  1  0  0  0
  1 32  1  0  0  0
  1 33  1  0  0  0
  2 30  1  0  0  0
  2  3  1  0  0  0
  3  4  1  0  0  0
  3 28  2  0  0  0
  4  5  1  0  0  0
  5  6  1  0  0  0
  5 34  1  0  0  0
  5 35  1  0  0  0
  6 24  1  0  0  0
  6  7  2  0  0  0
  7  8  1  0  0  0
  7 25  1  0  0  0
  8 13  1  0  0  0
  8  9  1  0  0  0
  9 10  1  0  0  0
  9 23  1  0  0  0
  9 36  1  0  0  0
 10 11  1  0  0  0
 10 13  1  0  0  0
 10 15  1  0  0  0
 11 12  1  0  0  0
 12 37  1  0  0  0
 12 38  1  0  0  0
 12 39  1  0  0  0
 13 14  2  0  0  0
 15 16  1  0  0  0
 15 40  1  0  0  0
 16 17  1  0  0  0
 16 22  2  0  0  0
 17 18  1  0  0  0
 17 41  1  0  0  0
 17 42  1  0  0  0
 18 19  1  0  0  0
 19 20  1  0  0  0
 19 43  1  0  0  0
 19 44  1  0  0  0
 20 21  3  0  0  0
 23 24  1  0  0  0
 24 45  1  0  0  0
 24 46  1  0  0  0
 25 26  1  0  0  0
 25 27  2  0  0  0
 28 29  1  0  0  0
 29 30  2  0  0  0
M  CHG  1  26  -1
M  END
> <s_m_entry_id>
27760

> <s_m_entry_name>
data_maestro.3

> <s_m_Source_Path>
C:\Users\olshana1\Git\GramNeg-Accumulation\Gram Negative Permeation - OmpF

> <s_m_Source_File>
data_maestro.csv

> <i_m_Source_File_Index>
3

> <s_m_job_name>
glide-dock_Nicaido_neutral

> <s_i_glide_gridfile>
3POX-grid

> <i_i_glide_lignum>
3

> <i_i_glide_rotatable_bonds>
10

> <r_i_docking_score>
-3.61091725307772

> <r_i_glide_ligand_efficiency>
-0.120363908435924

> <r_i_glide_ligand_efficiency_sa>
-0.373998648411742

> <r_i_glide_ligand_efficiency_ln>
-0.820439743993944

> <r_i_glide_gscore>
-3.61091725307772

> <r_i_glide_lipo>
0

> <r_i_glide_hbond>
-0.452313288198289

> <r_i_glide_metal>
0

> <r_i_glide_rewards>
-0.20042060736975

> <r_i_glide_evdw>
-27.890718460083

> <r_i_glide_ecoul>
-10.0918140411377

> <r_i_glide_erotb>
0.638850535935238

> <r_i_glide_esite>
-0.68872586427011

> <r_i_glide_emodel>
-55.3627289659513

> <r_i_glide_energy>
-37.9825325012207

> <r_i_glide_einternal>
4.86349678039551

> <i_i_glide_confnum>
107

> <i_i_glide_posenum>
319

> <r_i_glide_eff_state_penalty>
0

> <r_glide_res:A132_vdw>
-0.112016448747493

> <r_glide_res:A132_coul>
-48.8210812211804

> <r_glide_res:A132_hbond>
-0.256692799743215

> <r_glide_res:A132_dist>
2.20684090853578

> <r_glide_res:A132_Eint>
-49.1897904696711

> <r_glide_res:A117_vdw>
-3.60375131312699

> <r_glide_res:A117_coul>
16.6978686246258

> <r_glide_res:A117_hbond>
0

> <r_glide_res:A117_dist>
2.30171321678856

> <r_glide_res:A117_Eint>
13.0941173114988

> <r_glide_res:A113_vdw>
-0.778374245648113

> <r_glide_res:A113_coul>
19.6535743445708

> <r_glide_res:A113_hbond>
0

> <r_glide_res:A113_dist>
4.75528956659972

> <r_glide_res:A113_Eint>
18.8752000989227

> <r_glide_res:A82_vdw>
-2.01308693792974

> <r_glide_res:A82_coul>
-45.2371914981659

> <r_glide_res:A82_hbond>
-0.0015621601569612

> <r_glide_res:A82_dist>
2.4932394530152

> <r_glide_res:A82_Eint>
-47.2518405962526

> <r_glide_res:A42_vdw>
-2.18835180889544

> <r_glide_res:A42_coul>
-37.50947042098

> <r_glide_res:A42_hbond>
-0.0510918590163627

> <r_glide_res:A42_dist>
2.36106005928547

> <r_glide_res:A42_Eint>
-39.7489140888918

> <r_glide_res:A16_vdw>
-0.95740063989852

> <r_glide_res:A16_coul>
-33.066014840915

> <r_glide_res:A16_hbond>
-0.14296646928175

> <r_glide_res:A16_dist>
2.11837843528751

> <r_glide_res:A16_Eint>
-34.1663819500953

> <s_m_source_file>
ligprep_Nicaido_neutral.maegz

> <i_m_source_file_index>
3

> <i_lp_mmshare_version>
58128

> <i_f3d_flags>
0

> <s_lp_Force_Field>
S-OPLS

> <r_lp_Energy>
32.161431

> <b_lp_Chiralities_Consistent>
1

> <s_lp_Variant>
Cefmetazole-1

> <s_epik_input>
bjFubmMobjFbQ0gzXSlTW0NIMl1DKD1DMkMoPU8pW09IXSlbQ0gyXVNbQ0BIXShOMjMpW0NAXShDMz1PKShPW0NIM10pW05IXUMoPU8pW0NIMl1TW0NIMl1DI04=

> <s_epik_cmdline>
J2VwaWtfcHl0aG9uJywgJy1waHQnLCAnMC4wJywgJy1waCcsICc3LjQnLCAnLW50JywgJy1tYScsICc1MDAnLCAnLWltYWUnLCAnPGluZmlsZS5tYWU+JywgJy1vbWFlJywgJzxvdXRmaWxlLm1hZT4n

> <r_lp_tautomer_probability>
1

> <r_epik_Ionization_Penalty>
  0.0000

> <r_epik_Ionization_Penalty_Charging>
  0.0000

> <r_epik_Ionization_Penalty_Neutral>
  0.0000

> <r_epik_State_Penalty>
  0.0000

> <r_epik_Charging_Adjusted_Penalty>
8.27330724987756e-06

> <i_epik_Tot_Q>
-1

> <i_epik_Tot_abs_Q>
1

> <s_epik_Chemistry_Notes>
This compound contains an acetal/aminal-like group ( X-CH(R)-Y where X, Y are N, S, or O) that may be acid/base labile, releasing an aldehyde.

> <s_m_subgroup_title>
glide-dock_Nicaido_neutral_pv1

> <s_m_subgroupid>
glide-dock_Nicaido_neutral_pv1

> <b_m_subgroup_collapsed>
0

$$$$
Ceftriaxone
                    3D
 Schrodinger Suite 2022-2.
 52 55  0  0  1  0            999 V2000
  -17.7443  -24.6206  -17.7799 C   0  0  0  0  0  0
  -18.8811  -24.7914  -18.6776 N   0  0  0  0  0  0
  -19.5465  -23.6537  -19.2125 C   0  0  0  0  0  0
  -19.4885  -22.1722  -18.1283 S   0  0  0  0  0  0
  -20.4458  -22.6861  -16.6623 C   0  0  0  0  0  0
  -21.9585  -22.6017  -16.8792 C   0  0  0  0  0  0
  -22.7344  -23.6666  -17.2146 C   0  0  0  0  0  0
  -24.1113  -23.5540  -17.4894 N   0  0  0  0  0  0
  -24.9242  -22.4411  -17.0353 C   0  0  2  0  0  0
  -26.0939  -23.0584  -17.8320 C   0  0  2  0  0  0
  -25.1692  -24.2842  -18.0133 C   0  0  0  0  0  0
  -25.2789  -25.4245  -18.4136 O   0  0  0  0  0  0
  -26.3628  -22.3217  -19.0619 N   0  0  0  0  0  0
  -27.1229  -22.7330  -20.0901 C   0  0  0  0  0  0
  -27.3769  -21.6698  -21.1539 C   0  0  0  0  0  0
  -26.4593  -20.4846  -21.1575 C   0  0  0  0  0  0
  -26.4181  -19.5729  -20.1229 C   0  0  0  0  0  0
  -25.1895  -18.3589  -20.3622 S   0  0  0  0  0  0
  -24.8650  -19.0622  -21.9363 C   0  0  0  0  0  0
  -23.9688  -18.4816  -22.8133 N   0  0  0  0  0  0
  -25.5714  -20.1640  -22.1939 N   0  0  0  0  0  0
  -28.3111  -21.8510  -22.0041 N   0  0  0  0  0  0
  -28.4230  -20.8024  -22.9288 O   0  0  0  0  0  0
  -29.7552  -20.3160  -22.8783 C   0  0  0  0  0  0
  -27.5886  -23.8748  -20.1837 O   0  0  0  0  0  0
  -24.1019  -20.8906  -17.5174 S   0  0  0  0  0  0
  -22.5106  -21.1867  -16.7003 C   0  0  0  0  0  0
  -22.1340  -25.0805  -17.4627 C   0  0  0  0  0  0
  -21.5760  -25.6336  -16.4843 O   0  5  0  0  0  0
  -22.3347  -25.5495  -18.6014 O   0  0  0  0  0  0
  -20.1379  -23.6262  -20.3732 N   0  0  0  0  0  0
  -20.2260  -24.8082  -21.1094 C   0  0  0  0  0  0
  -19.7431  -26.1352  -20.4359 C   0  0  0  0  0  0
  -19.9404  -27.1722  -21.0705 O   0  0  0  0  0  0
  -19.1473  -26.0809  -19.2136 N   0  5  0  0  0  0
  -20.6872  -24.8698  -22.2504 O   0  0  0  0  0  0
  -18.0659  -24.3620  -16.7725 H   0  0  0  0  0  0
  -17.1665  -25.5428  -17.7095 H   0  0  0  0  0  0
  -17.0744  -23.8388  -18.1422 H   0  0  0  0  0  0
  -20.1854  -22.0193  -15.8402 H   0  0  0  0  0  0
  -20.1206  -23.6688  -16.3370 H   0  0  0  0  0  0
  -25.0779  -22.4875  -15.9547 H   0  0  0  0  0  0
  -26.9777  -23.2181  -17.2137 H   0  0  0  0  0  0
  -25.9859  -21.3836  -19.0911 H   0  0  0  0  0  0
  -27.0148  -19.5497  -19.2200 H   0  0  0  0  0  0
  -24.1934  -18.5658  -23.7974 H   0  0  0  0  0  0
  -23.6530  -17.5485  -22.5918 H   0  0  0  0  0  0
  -29.8717  -19.4994  -23.5914 H   0  0  0  0  0  0
  -30.4790  -21.0925  -23.1314 H   0  0  0  0  0  0
  -29.9916  -19.9236  -21.8862 H   0  0  0  0  0  0
  -22.6200  -20.9896  -15.6339 H   0  0  0  0  0  0
  -21.8000  -20.4584  -17.0906 H   0  0  0  0  0  0
  1  2  1  0  0  0
  1 37  1  0  0  0
  1 38  1  0  0  0
  1 39  1  0  0  0
  2 35  1  0  0  0
  2  3  1  0  0  0
  3  4  1  0  0  0
  3 31  2  0  0  0
  4  5  1  0  0  0
  5  6  1  0  0  0
  5 40  1  0  0  0
  5 41  1  0  0  0
  6 27  1  0  0  0
  6  7  2  0  0  0
  7  8  1  0  0  0
  7 28  1  0  0  0
  8 11  1  0  0  0
  8  9  1  0  0  0
  9 10  1  0  0  0
  9 26  1  0  0  0
  9 42  1  0  0  0
 10 11  1  0  0  0
 10 13  1  0  0  0
 10 43  1  0  0  0
 11 12  2  0  0  0
 13 14  1  0  0  0
 13 44  1  0  0  0
 14 15  1  0  0  0
 14 25  2  0  0  0
 15 16  1  0  0  0
 15 22  2  3  0  0
 16 21  1  0  0  0
 16 17  2  0  0  0
 17 18  1  0  0  0
 17 45  1  0  0  0
 18 19  1  0  0  0
 19 20  1  0  0  0
 19 21  2  0  0  0
 20 46  1  0  0  0
 20 47  1  0  0  0
 22 23  1  0  0  0
 23 24  1  0  0  0
 24 48  1  0  0  0
 24 49  1  0  0  0
 24 50  1  0  0  0
 26 27  1  0  0  0
 27 51  1  0  0  0
 27 52  1  0  0  0
 28 29  1  0  0  0
 28 30  2  0  0  0
 31 32  1  0  0  0
 32 33  1  0  0  0
 32 36  2  0  0  0
 33 34  2  0  0  0
 33 35  1  0  0  0
M  CHG  2  29  -1  35  -1
M  END
> <s_m_entry_id>
27761

> <s_m_entry_name>
data_maestro.22

> <s_m_Source_Path>
C:\Users\olshana1\Git\GramNeg-Accumulation\Gram Negative Permeation - OmpF

> <s_m_Source_File>
data_maestro.csv

> <i_m_Source_File_Index>
22

> <s_m_job_name>
glide-dock_Nicaido_neutral

> <s_i_glide_gridfile>
3POX-grid

> <i_i_glide_lignum>
28

> <i_i_glide_rotatable_bonds>
9

> <r_i_docking_score>
-3.60530531923365

> <r_i_glide_ligand_efficiency>
-0.100147369978713

> <r_i_glide_ligand_efficiency_sa>
-0.330679329442844

> <r_i_glide_ligand_efficiency_ln>
-0.786580216563487

> <r_i_glide_gscore>
-3.60530531923365

> <r_i_glide_lipo>
0

> <r_i_glide_hbond>
-0.870381651447716

> <r_i_glide_metal>
0

> <r_i_glide_rewards>
1.48485908706692

> <r_i_glide_evdw>
-32.9854850769043

> <r_i_glide_ecoul>
-15.9653968811035

> <r_i_glide_erotb>
0.472124986767549

> <r_i_glide_esite>
-0.647823955609661

> <r_i_glide_emodel>
-62.9434545101238

> <r_i_glide_energy>
-48.9508819580078

> <r_i_glide_einternal>
13.5281248092651

> <i_i_glide_confnum>
238

> <i_i_glide_posenum>
254

> <r_i_glide_eff_state_penalty>
0

> <r_glide_res:A132_vdw>
-2.02287471469097

> <r_glide_res:A132_coul>
-58.711662005518

> <r_glide_res:A132_hbond>
-0.16

> <r_glide_res:A132_dist>
1.95858882721636

> <r_glide_res:A132_Eint>
-60.894536720209

> <r_glide_res:A117_vdw>
-3.12485824317085

> <r_glide_res:A117_coul>
26.577954465963

> <r_glide_res:A117_hbond>
-0.0253251740437545

> <r_glide_res:A117_dist>
2.38759361396326

> <r_glide_res:A117_Eint>
23.4277710487484

> <r_glide_res:A113_vdw>
-1.68577289609588

> <r_glide_res:A113_coul>
25.7463548212708

> <r_glide_res:A113_hbond>
0

> <r_glide_res:A113_dist>
3.35143839447623

> <r_glide_res:A113_Eint>
24.0605819251749

> <r_glide_res:A82_vdw>
-0.776576274121894

> <r_glide_res:A82_coul>
-41.2813402627256

> <r_glide_res:A82_hbond>
0

> <r_glide_res:A82_dist>
3.75062262034314

> <r_glide_res:A82_Eint>
-42.0579165368475

> <r_glide_res:A42_vdw>
-0.368511912001939

> <r_glide_res:A42_coul>
-35.3299735630167

> <r_glide_res:A42_hbond>
0

> <r_glide_res:A42_dist>
4.21178801211592

> <r_glide_res:A42_Eint>
-35.6984854750186

> <r_glide_res:A16_vdw>
-0.0831338359282654

> <r_glide_res:A16_coul>
-24.0842241899113

> <r_glide_res:A16_hbond>
0

> <r_glide_res:A16_dist>
4.84167233296091

> <r_glide_res:A16_Eint>
-24.1673580258396

> <s_m_source_file>
ligprep_Nicaido_neutral.maegz

> <i_m_source_file_index>
22

> <i_lp_mmshare_version>
58128

> <i_f3d_flags>
0

> <s_lp_Force_Field>
S-OPLS

> <r_lp_Energy>
109.903222

> <b_lp_Chiralities_Consistent>
1

> <s_lp_Variant>
Ceftriaxone-1

> <s_epik_input>
W09IXWMobjEpYyg9TyluYyhuMVtDSDNdKVNbQ0gyXUMoPUMyQyg9TylbT0hdKVtDSDJdU1tDQEhdKE4yMylbQ0BIXShDMz1PKVtOSF1DKD1PKS9DKD1OL09bQ0gzXSljNFtjSF1zYyhuNClbTkgyXQ==

> <s_epik_cmdline>
J2VwaWtfcHl0aG9uJywgJy1waHQnLCAnMC4wJywgJy1waCcsICc3LjQnLCAnLW50JywgJy1tYScsICc1MDAnLCAnLWltYWUnLCAnPGluZmlsZS5tYWU+JywgJy1vbWFlJywgJzxvdXRmaWxlLm1hZT4n

> <r_lp_tautomer_probability>
1

> <r_epik_Ionization_Penalty>
  0.0014

> <r_epik_Ionization_Penalty_Charging>
  0.0010

> <r_epik_Ionization_Penalty_Neutral>
  0.0004

> <r_epik_State_Penalty>
  0.0000

> <r_epik_Charging_Adjusted_Penalty>
0.000994184415634904

> <i_epik_Tot_Q>
-2

> <i_epik_Tot_abs_Q>
2

> <s_epik_Chemistry_Notes>
This compound has an imine and may undergo hydrolysis. This compound contains an acetal/aminal-like group ( X-CH(R)-Y where X, Y are N, S, or O) that may be acid/base labile, releasing an aldehyde.

> <s_m_subgroup_title>
glide-dock_Nicaido_neutral_pv1

> <s_m_subgroupid>
glide-dock_Nicaido_neutral_pv1

> <b_m_subgroup_collapsed>
0

$$$$
Sulbenicillin
                    3D
 Schrodinger Suite 2022-2.
 43 45  0  0  1  0            999 V2000
  -20.4582  -20.9501  -26.3832 C   0  0  0  0  0  0
  -21.6197  -21.7704  -25.7955 C   0  0  0  0  0  0
  -21.2452  -23.2429  -25.3951 C   0  0  2  0  0  0
  -22.0345  -23.4663  -24.2075 N   0  0  0  0  0  0
  -22.2635  -22.4370  -23.2109 C   0  0  1  0  0  0
  -22.2401  -20.9538  -24.2701 S   0  0  0  0  0  0
  -23.5024  -23.2213  -22.7667 C   0  0  2  0  0  0
  -23.1689  -24.1769  -23.9194 C   0  0  0  0  0  0
  -23.6664  -25.1496  -24.4474 O   0  0  0  0  0  0
  -24.7418  -22.4802  -22.9567 N   0  0  0  0  0  0
  -25.9435  -23.0236  -22.7252 C   0  0  0  0  0  0
  -27.1564  -22.0892  -22.7852 C   0  0  2  0  0  0
  -27.4117  -21.5022  -21.4195 C   0  0  0  0  0  0
  -27.6906  -22.3418  -20.3165 C   0  0  0  0  0  0
  -27.9689  -21.7839  -19.0622 C   0  0  0  0  0  0
  -27.9689  -20.3892  -18.9245 C   0  0  0  0  0  0
  -27.6858  -19.5466  -20.0134 C   0  0  0  0  0  0
  -27.3992  -20.1023  -21.2654 C   0  0  0  0  0  0
  -28.7029  -22.8986  -23.4086 S   0  0  0  0  0  0
  -28.8781  -24.1369  -22.6279 O   0  0  0  0  0  0
  -28.3691  -23.1496  -24.8134 O   0  5  0  0  0  0
  -29.7621  -21.8993  -23.2213 O   0  0  0  0  0  0
  -26.0642  -24.2075  -22.4134 O   0  0  0  0  0  0
  -19.7732  -23.5496  -25.0450 C   0  0  0  0  0  0
  -19.2211  -22.8714  -24.1518 O   0  5  0  0  0  0
  -19.2522  -24.5370  -25.6134 O   0  0  0  0  0  0
  -22.7762  -21.7942  -26.8134 C   0  0  0  0  0  0
  -19.9865  -21.4719  -27.2134 H   0  0  0  0  0  0
  -20.8057  -19.9841  -26.7498 H   0  0  0  0  0  0
  -19.6866  -20.7495  -25.6398 H   0  0  0  0  0  0
  -21.5531  -23.9368  -26.1796 H   0  0  0  0  0  0
  -21.4797  -22.3945  -22.4525 H   0  0  0  0  0  0
  -23.3854  -23.6445  -21.7679 H   0  0  0  0  0  0
  -24.6668  -21.4985  -23.1878 H   0  0  0  0  0  0
  -26.9546  -21.2785  -23.4846 H   0  0  0  0  0  0
  -27.7182  -23.4138  -20.4302 H   0  0  0  0  0  0
  -28.2179  -22.4119  -18.2195 H   0  0  0  0  0  0
  -28.2484  -19.9535  -17.9833 H   0  0  0  0  0  0
  -27.7163  -18.4733  -19.8898 H   0  0  0  0  0  0
  -27.2015  -19.4452  -22.1005 H   0  0  0  0  0  0
  -22.4740  -22.2676  -27.7477 H   0  0  0  0  0  0
  -23.6360  -22.3425  -26.4292 H   0  0  0  0  0  0
  -23.1146  -20.7855  -27.0539 H   0  0  0  0  0  0
  1  2  1  0  0  0
  1 28  1  0  0  0
  1 29  1  0  0  0
  1 30  1  0  0  0
  2  6  1  0  0  0
  2  3  1  0  0  0
  2 27  1  0  0  0
  3  4  1  0  0  0
  3 24  1  0  0  0
  3 31  1  0  0  0
  4  8  1  0  0  0
  4  5  1  0  0  0
  5  6  1  0  0  0
  5  7  1  0  0  0
  5 32  1  0  0  0
  7  8  1  0  0  0
  7 10  1  0  0  0
  7 33  1  0  0  0
  8  9  2  0  0  0
 10 11  1  0  0  0
 10 34  1  0  0  0
 11 12  1  0  0  0
 11 23  2  0  0  0
 12 13  1  0  0  0
 12 19  1  0  0  0
 12 35  1  0  0  0
 13 18  1  0  0  0
 13 14  2  0  0  0
 14 15  1  0  0  0
 14 36  1  0  0  0
 15 16  2  0  0  0
 15 37  1  0  0  0
 16 17  1  0  0  0
 16 38  1  0  0  0
 17 18  2  0  0  0
 17 39  1  0  0  0
 18 40  1  0  0  0
 19 20  2  0  0  0
 19 21  1  0  0  0
 19 22  2  0  0  0
 24 25  1  0  0  0
 24 26  2  0  0  0
 27 41  1  0  0  0
 27 42  1  0  0  0
 27 43  1  0  0  0
M  CHG  2  21  -1  25  -1
M  END
> <s_m_entry_id>
27762

> <s_m_entry_name>
data_maestro.23

> <s_m_Source_Path>
C:\Users\olshana1\Git\GramNeg-Accumulation\Gram Negative Permeation - OmpF

> <s_m_Source_File>
data_maestro.csv

> <i_m_Source_File_Index>
23

> <s_m_job_name>
glide-dock_Nicaido_neutral

> <s_i_glide_gridfile>
3POX-grid

> <i_i_glide_lignum>
30

> <i_i_glide_rotatable_bonds>
6

> <r_i_docking_score>
-3.58976362650595

> <r_i_glide_ligand_efficiency>
-0.132954208389109

> <r_i_glide_ligand_efficiency_sa>
-0.398862624729132

> <r_i_glide_ligand_efficiency_ln>
-0.835637790371886

> <r_i_glide_gscore>
-3.58976362650595

> <r_i_glide_lipo>
-0.13212084561549

> <r_i_glide_hbond>
-0.521300974117335

> <r_i_glide_metal>
0

> <r_i_glide_rewards>
-0.596845332052796

> <r_i_glide_evdw>
-20.1040058135986

> <r_i_glide_ecoul>
-7.23705387115479

> <r_i_glide_erotb>
0.347763984117939

> <r_i_glide_esite>
-0.596502087485115

> <r_i_glide_emodel>
-45.9110648419029

> <r_i_glide_energy>
-27.3410596847534

> <r_i_glide_einternal>
1.78931796550751

> <i_i_glide_confnum>
6

> <i_i_glide_posenum>
246

> <r_i_glide_eff_state_penalty>
0

> <r_glide_res:A132_vdw>
-1.26551115690609

> <r_glide_res:A132_coul>
-55.5710995534097

> <r_glide_res:A132_hbond>
-0.0682924091014487

> <r_glide_res:A132_dist>
2.13740966899752

> <r_glide_res:A132_Eint>
-56.9049031194173

> <r_glide_res:A117_vdw>
-1.62793688498699

> <r_glide_res:A117_coul>
37.4187619429111

> <r_glide_res:A117_hbond>
0

> <r_glide_res:A117_dist>
2.73496997495726

> <r_glide_res:A117_Eint>
35.7908250579241

> <r_glide_res:A113_vdw>
-1.47716825196163

> <r_glide_res:A113_coul>
42.9928193185734

> <r_glide_res:A113_hbond>
0

> <r_glide_res:A113_dist>
2.72421659759547

> <r_glide_res:A113_Eint>
41.5156510666117

> <r_glide_res:A82_vdw>
-0.911496994776274

> <r_glide_res:A82_coul>
-71.2196474254697

> <r_glide_res:A82_hbond>
-0.125587402299882

> <r_glide_res:A82_dist>
1.8838915491762

> <r_glide_res:A82_Eint>
-72.2567318225458

> <r_glide_res:A42_vdw>
0.00250661801466107

> <r_glide_res:A42_coul>
-62.1338429963828

> <r_glide_res:A42_hbond>
-0.267864392492367

> <r_glide_res:A42_dist>
1.9400459179033

> <r_glide_res:A42_Eint>
-62.3992007708605

> <r_glide_res:A16_vdw>
-0.244789771374426

> <r_glide_res:A16_coul>
-39.9287434810973

> <r_glide_res:A16_hbond>
0

> <r_glide_res:A16_dist>
4.31118204576644

> <r_glide_res:A16_Eint>
-40.1735332524718

> <s_m_source_file>
ligprep_Nicaido_neutral.maegz

> <i_m_source_file_index>
23

> <i_lp_mmshare_version>
58128

> <i_f3d_flags>
0

> <s_lp_Force_Field>
S-OPLS

> <r_lp_Energy>
22.166908

> <b_lp_Chiralities_Consistent>
1

> <s_lp_Variant>
Sulbenicillin-1

> <s_epik_input>
W09IXUMoPU8pW0NAQEhdMUMoW0NIM10pKFtDSDNdKVNbQ0BIXShOMTIpW0NASF0oQzI9TylbTkhdQyg9TylbQ0BASF0oUyg9TykoPU8pW09IXSljM1tjSF1bY0hdW2NIXVtjSF1bY0hdMw==

> <s_epik_cmdline>
J2VwaWtfcHl0aG9uJywgJy1waHQnLCAnMC4wJywgJy1waCcsICc3LjQnLCAnLW50JywgJy1tYScsICc1MDAnLCAnLWltYWUnLCAnPGluZmlsZS5tYWU+JywgJy1vbWFlJywgJzxvdXRmaWxlLm1hZT4n

> <r_lp_tautomer_probability>
1

> <r_epik_Ionization_Penalty>
  0.0000

> <r_epik_Ionization_Penalty_Charging>
  0.0000

> <r_epik_Ionization_Penalty_Neutral>
  0.0000

> <r_epik_State_Penalty>
  0.0000

> <r_epik_Charging_Adjusted_Penalty>
1.13251598244902e-05

> <i_epik_Tot_Q>
-2

> <i_epik_Tot_abs_Q>
2

> <s_epik_Chemistry_Notes>
This compound contains an acetal/aminal-like group ( X-CH(R)-Y where X, Y are N, S, or O) that may be acid/base labile, releasing an aldehyde.

> <s_m_subgroup_title>
glide-dock_Nicaido_neutral_pv1

> <s_m_subgroupid>
glide-dock_Nicaido_neutral_pv1

> <b_m_subgroup_collapsed>
0

$$$$
Cefuroxime
                    3D
 Schrodinger Suite 2022-2.
 44 46  0  0  1  0            999 V2000
  -20.9763  -25.4553  -17.8311 C   0  0  0  0  0  0
  -22.1015  -25.1681  -17.0186 O   0  0  0  0  0  0
  -23.2291  -25.0848  -17.8552 N   0  0  0  0  0  0
  -23.8343  -23.9638  -17.7662 C   0  0  0  0  0  0
  -23.3440  -22.8383  -16.9723 C   0  0  0  0  0  0
  -23.7370  -22.1844  -15.8373 C   0  0  0  0  0  0
  -22.7792  -21.1551  -15.6135 C   0  0  0  0  0  0
  -21.8732  -21.2495  -16.6286 C   0  0  0  0  0  0
  -22.2016  -22.2714  -17.4618 O   0  0  0  0  0  0
  -25.0655  -23.6931  -18.6103 C   0  0  0  0  0  0
  -25.8572  -22.6866  -18.1774 N   0  0  0  0  0  0
  -27.0030  -22.0514  -18.8584 C   0  0  1  0  0  0
  -26.5536  -21.2473  -20.0895 C   0  0  1  0  0  0
  -27.6144  -21.9222  -20.8286 N   0  0  0  0  0  0
  -27.8130  -22.9020  -19.8773 C   0  0  0  0  0  0
  -28.3688  -23.9761  -19.9088 O   0  0  0  0  0  0
  -27.7643  -21.6187  -22.1952 C   0  0  0  0  0  0
  -27.6345  -22.7796  -23.2548 C   0  0  0  0  0  0
  -27.5691  -22.4787  -24.4682 O   0  5  0  0  0  0
  -27.5691  -23.9492  -22.8113 O   0  0  0  0  0  0
  -27.9851  -20.3106  -22.4730 C   0  0  0  0  0  0
  -28.1844  -19.3565  -21.3045 C   0  0  0  0  0  0
  -26.7518  -19.4279  -20.1971 S   0  0  0  0  0  0
  -28.0270  -19.6735  -23.8564 C   0  0  0  0  0  0
  -29.2266  -19.9820  -24.5575 O   0  0  0  0  0  0
  -29.5749  -19.4141  -25.7419 C   0  0  0  0  0  0
  -28.7690  -18.3483  -26.1013 N   0  0  0  0  0  0
  -30.5202  -19.8219  -26.4128 O   0  0  0  0  0  0
  -25.2704  -24.3494  -19.6329 O   0  0  0  0  0  0
  -20.0901  -25.5645  -17.2078 H   0  0  0  0  0  0
  -21.1102  -26.3777  -18.3944 H   0  0  0  0  0  0
  -20.7875  -24.6437  -18.5361 H   0  0  0  0  0  0
  -24.6031  -22.4152  -15.2325 H   0  0  0  0  0  0
  -22.7645  -20.4331  -14.8102 H   0  0  0  0  0  0
  -20.9842  -20.6970  -16.8967 H   0  0  0  0  0  0
  -25.5971  -22.2472  -17.3054 H   0  0  0  0  0  0
  -27.6243  -21.4564  -18.1862 H   0  0  0  0  0  0
  -25.5776  -21.5444  -20.4810 H   0  0  0  0  0  0
  -28.3750  -18.3494  -21.6268 H   0  0  0  0  0  0
  -29.0740  -19.6559  -20.7465 H   0  0  0  0  0  0
  -27.9247  -18.5956  -23.7490 H   0  0  0  0  0  0
  -27.1677  -20.0103  -24.4360 H   0  0  0  0  0  0
  -28.0056  -18.0642  -25.5024 H   0  0  0  0  0  0
  -29.0221  -17.8055  -26.9127 H   0  0  0  0  0  0
  1  2  1  0  0  0
  1 30  1  0  0  0
  1 31  1  0  0  0
  1 32  1  0  0  0
  2  3  1  0  0  0
  3  4  2  3  0  0
  4  5  1  0  0  0
  4 10  1  0  0  0
  5  9  1  0  0  0
  5  6  2  0  0  0
  6  7  1  0  0  0
  6 33  1  0  0  0
  7  8  2  0  0  0
  7 34  1  0  0  0
  8  9  1  0  0  0
  8 35  1  0  0  0
 10 11  1  0  0  0
 10 29  2  0  0  0
 11 12  1  0  0  0
 11 36  1  0  0  0
 12 15  1  0  0  0
 12 13  1  0  0  0
 12 37  1  0  0  0
 13 23  1  0  0  0
 13 14  1  0  0  0
 13 38  1  0  0  0
 14 15  1  0  0  0
 14 17  1  0  0  0
 15 16  2  0  0  0
 17 18  1  0  0  0
 17 21  2  0  0  0
 18 19  1  0  0  0
 18 20  2  0  0  0
 21 22  1  0  0  0
 21 24  1  0  0  0
 22 23  1  0  0  0
 22 39  1  0  0  0
 22 40  1  0  0  0
 24 25  1  0  0  0
 24 41  1  0  0  0
 24 42  1  0  0  0
 25 26  1  0  0  0
 26 27  1  0  0  0
 26 28  2  0  0  0
 27 43  1  0  0  0
 27 44  1  0  0  0
M  CHG  1  19  -1
M  END
> <s_m_entry_id>
27763

> <s_m_entry_name>
data_maestro.10

> <s_m_Source_Path>
C:\Users\olshana1\Git\GramNeg-Accumulation\Gram Negative Permeation - OmpF

> <s_m_Source_File>
data_maestro.csv

> <i_m_Source_File_Index>
10

> <s_m_job_name>
glide-dock_Nicaido_neutral

> <s_i_glide_gridfile>
3POX-grid

> <i_i_glide_lignum>
13

> <i_i_glide_rotatable_bonds>
9

> <r_i_docking_score>
-3.57419147487941

> <r_i_glide_ligand_efficiency>
-0.123247981892393

> <r_i_glide_ligand_efficiency_sa>
-0.378656848074808

> <r_i_glide_ligand_efficiency_ln>
-0.818399214071669

> <r_i_glide_gscore>
-3.57419147487941

> <r_i_glide_lipo>
0

> <r_i_glide_hbond>
-0.761878671989906

> <r_i_glide_metal>
0

> <r_i_glide_rewards>
1.86290904733466

> <r_i_glide_evdw>
-29.277717590332

> <r_i_glide_ecoul>
-20.8296127319336

> <r_i_glide_erotb>
0.663396273735242

> <r_i_glide_esite>
-0.750290334652769

> <r_i_glide_emodel>
-52.7943438867725

> <r_i_glide_energy>
-50.1073303222656

> <r_i_glide_einternal>
20.194164276123

> <i_i_glide_confnum>
117

> <i_i_glide_posenum>
39

> <r_i_glide_eff_state_penalty>
0

> <r_glide_res:A132_vdw>
-1.17142197499881

> <r_glide_res:A132_coul>
-48.3771253339973

> <r_glide_res:A132_hbond>
-0.302769099606412

> <r_glide_res:A132_dist>
1.82524314912732

> <r_glide_res:A132_Eint>
-49.8513164086025

> <r_glide_res:A117_vdw>
-2.61227921820562

> <r_glide_res:A117_coul>
14.3861680343276

> <r_glide_res:A117_hbond>
-0.00040488586206876

> <r_glide_res:A117_dist>
2.15974742296582

> <r_glide_res:A117_Eint>
11.7734839302599

> <r_glide_res:A113_vdw>
-2.51146704214466

> <r_glide_res:A113_coul>
22.9235976669846

> <r_glide_res:A113_hbond>
0

> <r_glide_res:A113_dist>
2.77534064363539

> <r_glide_res:A113_Eint>
20.41213062484

> <r_glide_res:A82_vdw>
2.63583405634429

> <r_glide_res:A82_coul>
-53.4030258167889

> <r_glide_res:A82_hbond>
-0.2

> <r_glide_res:A82_dist>
1.6004988882596

> <r_glide_res:A82_Eint>
-50.9671917604446

> <r_glide_res:A42_vdw>
-0.68062951009612

> <r_glide_res:A42_coul>
-45.9119686547283

> <r_glide_res:A42_hbond>
-0.2

> <r_glide_res:A42_dist>
1.90715563761628

> <r_glide_res:A42_Eint>
-46.7925981648244

> <r_glide_res:A16_vdw>
0.0178114866227548

> <r_glide_res:A16_coul>
-34.1762694942778

> <r_glide_res:A16_hbond>
-0.0591095723834941

> <r_glide_res:A16_dist>
2.18114957611444

> <r_glide_res:A16_Eint>
-34.2175675800385

> <s_m_source_file>
ligprep_Nicaido_neutral.maegz

> <i_m_source_file_index>
10

> <i_lp_mmshare_version>
58128

> <i_f3d_flags>
0

> <s_lp_Force_Field>
S-OPLS

> <r_lp_Energy>
41.721283

> <b_lp_Chiralities_Consistent>
1

> <s_lp_Variant>
Cefuroxime-1

> <s_epik_input>
bzFbY0hdW2NIXVtjSF1jMS9DKD1OXE9bQ0gzXSlDKD1PKVtOSF1bQ0BASF0yQyg9TylOKFtDQEhdMjMpQyhDKD1PKVtPSF0pPUMoW0NIMl1TMylbQ0gyXU9DKD1PKVtOSDJd

> <s_epik_cmdline>
J2VwaWtfcHl0aG9uJywgJy1waHQnLCAnMC4wJywgJy1waCcsICc3LjQnLCAnLW50JywgJy1tYScsICc1MDAnLCAnLWltYWUnLCAnPGluZmlsZS5tYWU+JywgJy1vbWFlJywgJzxvdXRmaWxlLm1hZT4n

> <r_lp_tautomer_probability>
1

> <r_epik_Ionization_Penalty>
  0.0000

> <r_epik_Ionization_Penalty_Charging>
  0.0000

> <r_epik_Ionization_Penalty_Neutral>
  0.0000

> <r_epik_State_Penalty>
  0.0000

> <r_epik_Charging_Adjusted_Penalty>
8.57368987839538e-06

> <i_epik_Tot_Q>
-1

> <i_epik_Tot_abs_Q>
1

> <s_epik_Chemistry_Notes>
This compound has an ester and may undergo hydrolysis at high or low pH. This compound has an imine and may undergo hydrolysis. This compound contains an acetal/aminal-like group ( X-CH(R)-Y where X, Y are N, S, or O) that may be acid/base labile, releasing an aldehyde.

> <s_m_subgroup_title>
glide-dock_Nicaido_neutral_pv1

> <s_m_subgroupid>
glide-dock_Nicaido_neutral_pv1

> <b_m_subgroup_collapsed>
0

$$$$
Ceftizoxime
                    3D
 Schrodinger Suite 2022-2.
 37 39  0  0  1  0            999 V2000
  -21.9692  -16.4324  -19.3437 C   0  0  0  0  0  0
  -22.7444  -17.3407  -20.1076 O   0  0  0  0  0  0
  -23.4878  -18.1249  -19.2149 N   0  0  0  0  0  0
  -24.2290  -19.0047  -19.7684 C   0  0  0  0  0  0
  -24.9223  -19.9909  -18.8906 C   0  0  0  0  0  0
  -26.2423  -20.3516  -19.0624 C   0  0  0  0  0  0
  -26.7067  -21.6596  -18.0134 S   0  0  0  0  0  0
  -25.1216  -21.5607  -17.2620 C   0  0  0  0  0  0
  -24.7689  -22.3499  -16.1837 N   0  0  0  0  0  0
  -24.3127  -20.6663  -17.8248 N   0  0  0  0  0  0
  -24.4420  -19.2107  -21.2775 C   0  0  0  0  0  0
  -24.7376  -20.4824  -21.6028 N   0  0  0  0  0  0
  -25.1821  -20.9753  -22.8987 C   0  0  1  0  0  0
  -24.0570  -21.0846  -23.9475 C   0  0  1  0  0  0
  -24.3975  -22.4941  -24.0471 N   0  0  0  0  0  0
  -25.1946  -22.5222  -22.9198 C   0  0  0  0  0  0
  -25.6595  -23.4327  -22.2635 O   0  0  0  0  0  0
  -23.7304  -23.3530  -24.9296 C   0  0  0  0  0  0
  -23.6659  -24.8539  -24.5438 C   0  0  0  0  0  0
  -24.3690  -25.6439  -25.2129 O   0  5  0  0  0  0
  -22.8827  -25.1495  -23.6133 O   0  0  0  0  0  0
  -23.1069  -22.8998  -26.0384 C   0  0  0  0  0  0
  -23.0383  -21.4460  -26.4843 C   0  0  0  0  0  0
  -24.2135  -20.3653  -25.6146 S   0  0  0  0  0  0
  -24.3688  -18.3027  -22.1029 O   0  0  0  0  0  0
  -21.3790  -15.8029  -20.0100 H   0  0  0  0  0  0
  -22.6035  -15.7786  -18.7418 H   0  0  0  0  0  0
  -21.2798  -16.9570  -18.6800 H   0  0  0  0  0  0
  -26.9607  -19.9569  -19.7682 H   0  0  0  0  0  0
  -24.0697  -21.9727  -15.5598 H   0  0  0  0  0  0
  -25.5286  -22.8252  -15.7130 H   0  0  0  0  0  0
  -24.7525  -21.1583  -20.8518 H   0  0  0  0  0  0
  -26.0847  -20.4941  -23.2796 H   0  0  0  0  0  0
  -23.0519  -20.9441  -23.5419 H   0  0  0  0  0  0
  -22.5717  -23.5989  -26.6673 H   0  0  0  0  0  0
  -22.0252  -21.0815  -26.3160 H   0  0  0  0  0  0
  -23.2285  -21.3859  -27.5555 H   0  0  0  0  0  0
  1  2  1  0  0  0
  1 26  1  0  0  0
  1 27  1  0  0  0
  1 28  1  0  0  0
  2  3  1  0  0  0
  3  4  2  3  0  0
  4  5  1  0  0  0
  4 11  1  0  0  0
  5 10  1  0  0  0
  5  6  2  0  0  0
  6  7  1  0  0  0
  6 29  1  0  0  0
  7  8  1  0  0  0
  8  9  1  0  0  0
  8 10  2  0  0  0
  9 30  1  0  0  0
  9 31  1  0  0  0
 11 12  1  0  0  0
 11 25  2  0  0  0
 12 13  1  0  0  0
 12 32  1  0  0  0
 13 16  1  0  0  0
 13 14  1  0  0  0
 13 33  1  0  0  0
 14 24  1  0  0  0
 14 15  1  0  0  0
 14 34  1  0  0  0
 15 16  1  0  0  0
 15 18  1  0  0  0
 16 17  2  0  0  0
 18 19  1  0  0  0
 18 22  2  0  0  0
 19 20  1  0  0  0
 19 21  2  0  0  0
 22 23  1  0  0  0
 22 35  1  0  0  0
 23 24  1  0  0  0
 23 36  1  0  0  0
 23 37  1  0  0  0
M  CHG  1  20  -1
M  END
> <s_m_entry_id>
27764

> <s_m_entry_name>
data_maestro.5

> <s_m_Source_Path>
C:\Users\olshana1\Git\GramNeg-Accumulation\Gram Negative Permeation - OmpF

> <s_m_Source_File>
data_maestro.csv

> <i_m_Source_File_Index>
5

> <s_m_job_name>
glide-dock_Nicaido_neutral

> <s_i_glide_gridfile>
3POX-grid

> <i_i_glide_lignum>
6

> <i_i_glide_rotatable_bonds>
6

> <r_i_docking_score>
-3.55902039615093

> <r_i_glide_ligand_efficiency>
-0.142360815846037

> <r_i_glide_ligand_efficiency_sa>
-0.416265550313632

> <r_i_glide_ligand_efficiency_ln>
-0.843594489122493

> <r_i_glide_gscore>
-3.55902039615093

> <r_i_glide_lipo>
-0.131623489049781

> <r_i_glide_hbond>
-0.505344405041646

> <r_i_glide_metal>
0

> <r_i_glide_rewards>
-0.799452008497244

> <r_i_glide_evdw>
-30.6731128692627

> <r_i_glide_ecoul>
-6.58631563186646

> <r_i_glide_erotb>
0.664075194683877

> <r_i_glide_esite>
-0.265072700003028

> <r_i_glide_emodel>
-52.6130672612281

> <r_i_glide_energy>
-37.2594285011292

> <r_i_glide_einternal>
3.5813775062561

> <i_i_glide_confnum>
24

> <i_i_glide_posenum>
133

> <r_i_glide_eff_state_penalty>
0

> <r_glide_res:A132_vdw>
-1.28490927998856

> <r_glide_res:A132_coul>
-31.5517352116995

> <r_glide_res:A132_hbond>
0

> <r_glide_res:A132_dist>
2.67637324834364

> <r_glide_res:A132_Eint>
-32.8366444916881

> <r_glide_res:A117_vdw>
-3.21129790073109

> <r_glide_res:A117_coul>
25.9020418943571

> <r_glide_res:A117_hbond>
0

> <r_glide_res:A117_dist>
3.31762559182535

> <r_glide_res:A117_Eint>
22.690743993626

> <r_glide_res:A113_vdw>
-0.91380718467104

> <r_glide_res:A113_coul>
13.3545203913357

> <r_glide_res:A113_hbond>
0

> <r_glide_res:A113_dist>
4.08119957436978

> <r_glide_res:A113_Eint>
12.4407132066647

> <r_glide_res:A82_vdw>
-1.44115368282463

> <r_glide_res:A82_coul>
-41.3123578543799

> <r_glide_res:A82_hbond>
-0.19957843876625

> <r_glide_res:A82_dist>
1.97292134042199

> <r_glide_res:A82_Eint>
-42.9530899759708

> <r_glide_res:A42_vdw>
-2.18286340541676

> <r_glide_res:A42_coul>
-32.5614877034413

> <r_glide_res:A42_hbond>
0

> <r_glide_res:A42_dist>
2.73286470023063

> <r_glide_res:A42_Eint>
-34.744351108858

> <r_glide_res:A16_vdw>
-0.121442462135384

> <r_glide_res:A16_coul>
-17.66122597966

> <r_glide_res:A16_hbond>
0

> <r_glide_res:A16_dist>
6.44802616211804

> <r_glide_res:A16_Eint>
-17.7826684417954

> <s_m_source_file>
ligprep_Nicaido_neutral.maegz

> <i_m_source_file_index>
5

> <i_lp_mmshare_version>
58128

> <i_f3d_flags>
0

> <s_lp_Force_Field>
S-OPLS

> <r_lp_Energy>
52.500132

> <b_lp_Chiralities_Consistent>
1

> <s_lp_Variant>
Ceftizoxime-2

> <s_epik_input>
W05IMl1jKG4xKXNbY0hdYzEvQyg9TlxPW0NIM10pQyg9TylbTkhdW0NAQEhdMkMoPU8pTihbQ0BIXTIzKUMoQyg9TylbT0hdKT1bQ0hdW0NIMl1TMw==

> <s_epik_cmdline>
J2VwaWtfcHl0aG9uJywgJy1waHQnLCAnMC4wJywgJy1waCcsICc3LjQnLCAnLW50JywgJy1tYScsICc1MDAnLCAnLWltYWUnLCAnPGluZmlsZS5tYWU+JywgJy1vbWFlJywgJzxvdXRmaWxlLm1hZT4n

> <r_lp_tautomer_probability>
1

> <r_epik_Ionization_Penalty>
  0.0005

> <r_epik_Ionization_Penalty_Charging>
  0.0000

> <r_epik_Ionization_Penalty_Neutral>
  0.0005

> <r_epik_State_Penalty>
  0.0000

> <r_epik_Charging_Adjusted_Penalty>
4.86746471452517e-05

> <i_epik_Tot_Q>
-1

> <i_epik_Tot_abs_Q>
1

> <s_epik_Chemistry_Notes>
This compound has an imine and may undergo hydrolysis. This compound contains an acetal/aminal-like group ( X-CH(R)-Y where X, Y are N, S, or O) that may be acid/base labile, releasing an aldehyde.

> <s_m_subgroup_title>
glide-dock_Nicaido_neutral_pv1

> <s_m_subgroupid>
glide-dock_Nicaido_neutral_pv1

> <b_m_subgroup_collapsed>
0

$$$$
Ceftizoxime
                    3D
 Schrodinger Suite 2022-2.
 37 39  0  0  1  0            999 V2000
  -29.8270  -24.7380  -17.9801 C   0  0  0  0  0  0
  -28.8204  -24.3496  -18.8876 O   0  0  0  0  0  0
  -27.6659  -24.0855  -18.1413 N   0  0  0  0  0  0
  -26.7244  -23.5504  -18.8114 C   0  0  0  0  0  0
  -25.4441  -23.2661  -18.1288 C   0  0  0  0  0  0
  -25.3468  -22.2926  -17.1647 C   0  0  0  0  0  0
  -23.7763  -22.2675  -16.4134 S   0  0  0  0  0  0
  -23.2970  -23.5793  -17.4786 C   0  0  0  0  0  0
  -22.0291  -24.1283  -17.4317 N   0  0  0  0  0  0
  -24.2538  -23.9830  -18.3137 N   0  0  0  0  0  0
  -26.7617  -23.2244  -20.2992 C   0  0  0  0  0  0
  -26.0676  -22.1246  -20.6489 N   0  0  0  0  0  0
  -25.9234  -21.5311  -21.9903 C   0  0  1  0  0  0
  -24.4345  -21.3103  -22.3172 C   0  0  1  0  0  0
  -24.5681  -22.2918  -23.3757 N   0  0  0  0  0  0
  -25.9238  -22.4977  -23.2143 C   0  0  0  0  0  0
  -26.7381  -23.1390  -23.8463 O   0  0  0  0  0  0
  -23.4741  -22.6792  -24.1663 C   0  0  0  0  0  0
  -23.4865  -24.1010  -24.8447 C   0  0  0  0  0  0
  -24.3686  -24.9185  -24.4941 O   0  5  0  0  0  0
  -22.5342  -24.3495  -25.6133 O   0  0  0  0  0  0
  -22.4081  -21.8569  -24.3132 C   0  0  0  0  0  0
  -22.2540  -20.4622  -23.7178 C   0  0  0  0  0  0
  -23.7986  -19.7771  -23.0545 S   0  0  0  0  0  0
  -27.3608  -23.9494  -21.0960 O   0  0  0  0  0  0
  -30.7686  -24.8704  -18.5114 H   0  0  0  0  0  0
  -29.5757  -25.6745  -17.4804 H   0  0  0  0  0  0
  -29.9688  -23.9673  -17.2205 H   0  0  0  0  0  0
  -26.1165  -21.6195  -16.8149 H   0  0  0  0  0  0
  -21.7226  -24.6013  -18.2684 H   0  0  0  0  0  0
  -21.3191  -23.5589  -16.9934 H   0  0  0  0  0  0
  -25.6302  -21.6044  -19.9014 H   0  0  0  0  0  0
  -26.5135  -20.6246  -22.1288 H   0  0  0  0  0  0
  -23.7579  -21.6706  -21.5403 H   0  0  0  0  0  0
  -21.5629  -22.1839  -24.9022 H   0  0  0  0  0  0
  -21.5109  -20.5046  -22.9219 H   0  0  0  0  0  0
  -21.8749  -19.7804  -24.4808 H   0  0  0  0  0  0
  1  2  1  0  0  0
  1 26  1  0  0  0
  1 27  1  0  0  0
  1 28  1  0  0  0
  2  3  1  0  0  0
  3  4  2  3  0  0
  4  5  1  0  0  0
  4 11  1  0  0  0
  5 10  1  0  0  0
  5  6  2  0  0  0
  6  7  1  0  0  0
  6 29  1  0  0  0
  7  8  1  0  0  0
  8  9  1  0  0  0
  8 10  2  0  0  0
  9 30  1  0  0  0
  9 31  1  0  0  0
 11 12  1  0  0  0
 11 25  2  0  0  0
 12 13  1  0  0  0
 12 32  1  0  0  0
 13 16  1  0  0  0
 13 14  1  0  0  0
 13 33  1  0  0  0
 14 24  1  0  0  0
 14 15  1  0  0  0
 14 34  1  0  0  0
 15 16  1  0  0  0
 15 18  1  0  0  0
 16 17  2  0  0  0
 18 19  1  0  0  0
 18 22  2  0  0  0
 19 20  1  0  0  0
 19 21  2  0  0  0
 22 23  1  0  0  0
 22 35  1  0  0  0
 23 24  1  0  0  0
 23 36  1  0  0  0
 23 37  1  0  0  0
M  CHG  1  20  -1
M  END
> <s_m_entry_id>
27765

> <s_m_entry_name>
data_maestro.5

> <s_m_Source_Path>
C:\Users\olshana1\Git\GramNeg-Accumulation\Gram Negative Permeation - OmpF

> <s_m_Source_File>
data_maestro.csv

> <i_m_Source_File_Index>
5

> <s_m_job_name>
glide-dock_Nicaido_neutral

> <s_i_glide_gridfile>
3POX-grid

> <i_i_glide_lignum>
6

> <i_i_glide_rotatable_bonds>
6

> <r_i_docking_score>
-3.52220281655061

> <r_i_glide_ligand_efficiency>
-0.140888112662024

> <r_i_glide_ligand_efficiency_sa>
-0.411959340085077

> <r_i_glide_ligand_efficiency_ln>
-0.834867619423391

> <r_i_glide_gscore>
-3.52220281655061

> <r_i_glide_lipo>
0

> <r_i_glide_hbond>
-0.410098844526056

> <r_i_glide_metal>
0

> <r_i_glide_rewards>
-0.800119394081625

> <r_i_glide_evdw>
-27.2975654602051

> <r_i_glide_ecoul>
-6.42420530319214

> <r_i_glide_erotb>
0.664075194683877

> <r_i_glide_esite>
-0.647550704137729

> <r_i_glide_emodel>
-47.4434548456737

> <r_i_glide_energy>
-33.7217707633972

> <r_i_glide_einternal>
6.4942479133606

> <i_i_glide_confnum>
51

> <i_i_glide_posenum>
91

> <r_i_glide_eff_state_penalty>
0

> <r_glide_res:A132_vdw>
-2.47459184769948

> <r_glide_res:A132_coul>
-39.2338634091556

> <r_glide_res:A132_hbond>
-0.199848647953029

> <r_glide_res:A132_dist>
2.04268118368993

> <r_glide_res:A132_Eint>
-41.9083039048081

> <r_glide_res:A117_vdw>
-1.42610026872599

> <r_glide_res:A117_coul>
21.8862310964467

> <r_glide_res:A117_hbond>
0

> <r_glide_res:A117_dist>
3.84513734649436

> <r_glide_res:A117_Eint>
20.4601308277207

> <r_glide_res:A113_vdw>
-1.57898736561917

> <r_glide_res:A113_coul>
16.3360793761599

> <r_glide_res:A113_hbond>
0

> <r_glide_res:A113_dist>
2.52259364749775

> <r_glide_res:A113_Eint>
14.7570920105407

> <r_glide_res:A82_vdw>
-1.23670636803674

> <r_glide_res:A82_coul>
-48.5883126935981

> <r_glide_res:A82_hbond>
-0.138920313521212

> <r_glide_res:A82_dist>
2.1794207667101

> <r_glide_res:A82_Eint>
-49.9639393751561

> <r_glide_res:A42_vdw>
-1.67892174349673

> <r_glide_res:A42_coul>
-40.1925875238419

> <r_glide_res:A42_hbond>
-0.0443882079968296

> <r_glide_res:A42_dist>
2.31189513060563

> <r_glide_res:A42_Eint>
-41.9158974753355

> <r_glide_res:A16_vdw>
-0.0991875610176692

> <r_glide_res:A16_coul>
-20.5699042795992

> <r_glide_res:A16_hbond>
0

> <r_glide_res:A16_dist>
5.89994018403292

> <r_glide_res:A16_Eint>
-20.6690918406169

> <s_m_source_file>
ligprep_Nicaido_neutral.maegz

> <i_m_source_file_index>
5

> <i_lp_mmshare_version>
58128

> <i_f3d_flags>
0

> <s_lp_Force_Field>
S-OPLS

> <r_lp_Energy>
52.500132

> <b_lp_Chiralities_Consistent>
1

> <s_lp_Variant>
Ceftizoxime-2

> <s_epik_input>
W05IMl1jKG4xKXNbY0hdYzEvQyg9TlxPW0NIM10pQyg9TylbTkhdW0NAQEhdMkMoPU8pTihbQ0BIXTIzKUMoQyg9TylbT0hdKT1bQ0hdW0NIMl1TMw==

> <s_epik_cmdline>
J2VwaWtfcHl0aG9uJywgJy1waHQnLCAnMC4wJywgJy1waCcsICc3LjQnLCAnLW50JywgJy1tYScsICc1MDAnLCAnLWltYWUnLCAnPGluZmlsZS5tYWU+JywgJy1vbWFlJywgJzxvdXRmaWxlLm1hZT4n

> <r_lp_tautomer_probability>
1

> <r_epik_Ionization_Penalty>
  0.0005

> <r_epik_Ionization_Penalty_Charging>
  0.0000

> <r_epik_Ionization_Penalty_Neutral>
  0.0005

> <r_epik_State_Penalty>
  0.0000

> <r_epik_Charging_Adjusted_Penalty>
4.86746471452517e-05

> <i_epik_Tot_Q>
-1

> <i_epik_Tot_abs_Q>
1

> <s_epik_Chemistry_Notes>
This compound has an imine and may undergo hydrolysis. This compound contains an acetal/aminal-like group ( X-CH(R)-Y where X, Y are N, S, or O) that may be acid/base labile, releasing an aldehyde.

> <s_m_subgroup_title>
glide-dock_Nicaido_neutral_pv1

> <s_m_subgroupid>
glide-dock_Nicaido_neutral_pv1

> <b_m_subgroup_collapsed>
0

$$$$
LY097964
                    3D
 Schrodinger Suite 2022-2.
 40 42  0  0  1  0            999 V2000
  -29.0980  -24.6115  -17.6073 C   0  0  0  0  0  0
  -28.3706  -24.1940  -18.7455 O   0  0  0  0  0  0
  -27.6329  -23.0552  -18.3827 N   0  0  0  0  0  0
  -27.0692  -22.4296  -19.3473 C   0  0  0  0  0  0
  -26.2278  -21.2286  -19.0062 C   0  0  0  0  0  0
  -25.5697  -21.1609  -17.7951 C   0  0  0  0  0  0
  -24.6375  -19.6984  -17.6135 S   0  0  0  0  0  0
  -25.1825  -19.2044  -19.2015 C   0  0  0  0  0  0
  -24.7691  -18.0204  -19.7792 N   0  0  0  0  0  0
  -25.9951  -20.0810  -19.7870 N   0  0  0  0  0  0
  -27.1123  -22.8643  -20.8307 C   0  0  0  0  0  0
  -26.5445  -22.0156  -21.7004 N   0  0  0  0  0  0
  -26.2925  -22.3255  -23.1007 C   0  0  1  0  0  0
  -25.2946  -21.3582  -23.7674 C   0  0  1  0  0  0
  -24.6366  -22.5550  -24.2647 N   0  0  0  0  0  0
  -25.1690  -23.3692  -23.2901 C   0  0  0  0  0  0
  -24.8292  -24.4291  -22.8094 O   0  0  0  0  0  0
  -23.5694  -22.5373  -25.1797 C   0  0  0  0  0  0
  -22.8365  -23.9173  -25.3324 C   0  0  0  0  0  0
  -23.5624  -24.9001  -25.6134 O   0  5  0  0  0  0
  -21.6198  -23.9495  -25.0460 O   0  0  0  0  0  0
  -23.2736  -21.4335  -25.9189 C   0  0  0  0  0  0
  -24.0672  -20.1290  -25.8319 C   0  0  0  0  0  0
  -25.7509  -20.3493  -25.2001 S   0  0  0  0  0  0
  -22.1252  -21.3487  -26.9145 C   0  0  0  0  0  0
  -27.5673  -23.9495  -21.2086 O   0  0  0  0  0  0
  -29.7522  -25.4429  -17.8675 H   0  0  0  0  0  0
  -28.4276  -24.9456  -16.8149 H   0  0  0  0  0  0
  -29.7199  -23.8040  -17.2177 H   0  0  0  0  0  0
  -25.5820  -21.8811  -16.9890 H   0  0  0  0  0  0
  -25.2789  -17.6857  -20.5855 H   0  0  0  0  0  0
  -24.3841  -17.3072  -19.1768 H   0  0  0  0  0  0
  -26.2120  -21.1259  -21.3392 H   0  0  0  0  0  0
  -27.1944  -22.4890  -23.6929 H   0  0  0  0  0  0
  -24.6557  -20.8075  -23.0711 H   0  0  0  0  0  0
  -23.5315  -19.4292  -25.1896 H   0  0  0  0  0  0
  -24.1360  -19.6632  -26.8133 H   0  0  0  0  0  0
  -21.5742  -20.4189  -26.7695 H   0  0  0  0  0  0
  -21.4078  -22.1587  -26.8133 H   0  0  0  0  0  0
  -22.5064  -21.3608  -27.9357 H   0  0  0  0  0  0
  1  2  1  0  0  0
  1 27  1  0  0  0
  1 28  1  0  0  0
  1 29  1  0  0  0
  2  3  1  0  0  0
  3  4  2  3  0  0
  4  5  1  0  0  0
  4 11  1  0  0  0
  5 10  1  0  0  0
  5  6  2  0  0  0
  6  7  1  0  0  0
  6 30  1  0  0  0
  7  8  1  0  0  0
  8  9  1  0  0  0
  8 10  2  0  0  0
  9 31  1  0  0  0
  9 32  1  0  0  0
 11 12  1  0  0  0
 11 26  2  0  0  0
 12 13  1  0  0  0
 12 33  1  0  0  0
 13 16  1  0  0  0
 13 14  1  0  0  0
 13 34  1  0  0  0
 14 24  1  0  0  0
 14 15  1  0  0  0
 14 35  1  0  0  0
 15 16  1  0  0  0
 15 18  1  0  0  0
 16 17  2  0  0  0
 18 19  1  0  0  0
 18 22  2  0  0  0
 19 20  1  0  0  0
 19 21  2  0  0  0
 22 23  1  0  0  0
 22 25  1  0  0  0
 23 24  1  0  0  0
 23 36  1  0  0  0
 23 37  1  0  0  0
 25 38  1  0  0  0
 25 39  1  0  0  0
 25 40  1  0  0  0
M  CHG  1  20  -1
M  END
> <s_m_entry_id>
27766

> <s_m_entry_name>
data_maestro.7

> <s_m_Source_Path>
C:\Users\olshana1\Git\GramNeg-Accumulation\Gram Negative Permeation - OmpF

> <s_m_Source_File>
data_maestro.csv

> <i_m_Source_File_Index>
7

> <s_m_job_name>
glide-dock_Nicaido_neutral

> <s_i_glide_gridfile>
3POX-grid

> <i_i_glide_lignum>
10

> <i_i_glide_rotatable_bonds>
6

> <r_i_docking_score>
-3.50383052873732

> <r_i_glide_ligand_efficiency>
-0.134762712643743

> <r_i_glide_ligand_efficiency_sa>
-0.39923400594142

> <r_i_glide_ligand_efficiency_ln>
-0.822863102668257

> <r_i_glide_gscore>
-3.50383052873732

> <r_i_glide_lipo>
-0.0817719285330008

> <r_i_glide_hbond>
-0.224716390136526

> <r_i_glide_metal>
0

> <r_i_glide_rewards>
-0.703015299779781

> <r_i_glide_evdw>
-32.6291007995605

> <r_i_glide_ecoul>
-5.82419157028198

> <r_i_glide_erotb>
0.622478626066327

> <r_i_glide_esite>
-0.611721760834014

> <r_i_glide_emodel>
-52.7174396222041

> <r_i_glide_energy>
-38.4532923698425

> <r_i_glide_einternal>
5.10121726989746

> <i_i_glide_confnum>
22

> <i_i_glide_posenum>
244

> <r_i_glide_eff_state_penalty>
0

> <r_glide_res:A132_vdw>
-1.70253758227336

> <r_glide_res:A132_coul>
-38.5256602841771

> <r_glide_res:A132_hbond>
-0.154938898769543

> <r_glide_res:A132_dist>
2.0007765417851

> <r_glide_res:A132_Eint>
-40.38313676522

> <r_glide_res:A117_vdw>
-2.75842743214482

> <r_glide_res:A117_coul>
18.4803252094168

> <r_glide_res:A117_hbond>
0

> <r_glide_res:A117_dist>
2.84025865855468

> <r_glide_res:A117_Eint>
15.721897777272

> <r_glide_res:A113_vdw>
-1.98998948477808

> <r_glide_res:A113_coul>
15.7796324426361

> <r_glide_res:A113_hbond>
0

> <r_glide_res:A113_dist>
2.5398952639737

> <r_glide_res:A113_Eint>
13.7896429578581

> <r_glide_res:A82_vdw>
-2.14089414541681

> <r_glide_res:A82_coul>
-37.8628926326962

> <r_glide_res:A82_hbond>
0

> <r_glide_res:A82_dist>
2.63968141559477

> <r_glide_res:A82_Eint>
-40.003786778113

> <r_glide_res:A42_vdw>
-2.5915030460169

> <r_glide_res:A42_coul>
-34.9867048404203

> <r_glide_res:A42_hbond>
0

> <r_glide_res:A42_dist>
2.537202013479

> <r_glide_res:A42_Eint>
-37.5782078864372

> <r_glide_res:A16_vdw>
-0.181631316285527

> <r_glide_res:A16_coul>
-18.320995055675

> <r_glide_res:A16_hbond>
0

> <r_glide_res:A16_dist>
5.45983935533879

> <r_glide_res:A16_Eint>
-18.5026263719605

> <s_m_source_file>
ligprep_Nicaido_neutral.maegz

> <i_m_source_file_index>
7

> <i_lp_mmshare_version>
58128

> <i_f3d_flags>
0

> <s_lp_Force_Field>
S-OPLS

> <r_lp_Energy>
53.916069

> <b_lp_Chiralities_Consistent>
1

> <s_lp_Variant>
LY097964-2

> <s_epik_input>
W05IMl1jKG4xKXNbY0hdYzEvQyg9TlxPW0NIM10pQyg9TylbTkhdW0NAQEhdMkMoPU8pTihbQ0BIXTIzKUMoQyg9TylbT0hdKT1DKFtDSDJdUzMpW0NIM10=

> <s_epik_cmdline>
J2VwaWtfcHl0aG9uJywgJy1waHQnLCAnMC4wJywgJy1waCcsICc3LjQnLCAnLW50JywgJy1tYScsICc1MDAnLCAnLWltYWUnLCAnPGluZmlsZS5tYWU+JywgJy1vbWFlJywgJzxvdXRmaWxlLm1hZT4n

> <r_lp_tautomer_probability>
1

> <r_epik_Ionization_Penalty>
  0.0005

> <r_epik_Ionization_Penalty_Charging>
  0.0000

> <r_epik_Ionization_Penalty_Neutral>
  0.0005

> <r_epik_State_Penalty>
  0.0000

> <r_epik_Charging_Adjusted_Penalty>
1.64985111359435e-05

> <i_epik_Tot_Q>
-1

> <i_epik_Tot_abs_Q>
1

> <s_epik_Chemistry_Notes>
This compound has an imine and may undergo hydrolysis. This compound contains an acetal/aminal-like group ( X-CH(R)-Y where X, Y are N, S, or O) that may be acid/base labile, releasing an aldehyde.

> <s_m_subgroup_title>
glide-dock_Nicaido_neutral_pv1

> <s_m_subgroupid>
glide-dock_Nicaido_neutral_pv1

> <b_m_subgroup_collapsed>
0

$$$$
Piperacillin
                    3D
 Schrodinger Suite 2022-2.
 62 65  0  0  1  0            999 V2000
  -33.9468  -21.7923  -25.1203 C   0  0  0  0  0  0
  -33.1445  -20.6289  -24.5199 C   0  0  0  0  0  0
  -31.8556  -21.0805  -23.9826 N   0  0  0  0  0  0
  -31.8171  -21.3681  -22.5467 C   0  0  0  0  0  0
  -30.4441  -21.0483  -21.9346 C   0  0  0  0  0  0
  -29.3026  -21.4997  -22.7594 N   0  0  0  0  0  0
  -29.4571  -21.7407  -24.0997 C   0  0  0  0  0  0
  -30.7830  -21.2827  -24.7811 C   0  0  0  0  0  0
  -30.8018  -21.1531  -26.0109 O   0  0  0  0  0  0
  -28.6302  -22.3219  -24.8189 O   0  0  0  0  0  0
  -28.1252  -21.6838  -22.0984 C   0  0  0  0  0  0
  -27.0291  -21.2635  -22.7549 N   0  0  0  0  0  0
  -25.6457  -21.5700  -22.4125 C   0  0  2  0  0  0
  -24.8684  -20.3315  -22.0803 C   0  0  0  0  0  0
  -23.8093  -20.3996  -21.1440 C   0  0  0  0  0  0
  -23.0357  -19.2692  -20.8175 C   0  0  0  0  0  0
  -23.3121  -18.0320  -21.4227 C   0  0  0  0  0  0
  -24.3644  -17.9365  -22.3476 C   0  0  0  0  0  0
  -25.1297  -19.0719  -22.6727 C   0  0  0  0  0  0
  -25.0265  -22.2548  -23.6461 C   0  0  0  0  0  0
  -23.9872  -21.6814  -24.2817 N   0  0  0  0  0  0
  -23.2657  -22.2057  -25.4452 C   0  0  1  0  0  0
  -21.7879  -21.7748  -25.4326 C   0  0  2  0  0  0
  -21.4508  -23.1353  -25.0572 N   0  0  0  0  0  0
  -22.7142  -23.6263  -25.2457 C   0  0  0  0  0  0
  -23.1688  -24.7496  -25.1787 O   0  0  0  0  0  0
  -20.3532  -23.5000  -24.1873 C   0  0  2  0  0  0
  -20.1673  -22.2496  -23.2542 C   0  0  0  0  0  0
  -20.9318  -22.4807  -21.9369 C   0  0  0  0  0  0
  -20.9564  -20.8317  -24.1120 S   0  0  0  0  0  0
  -18.7037  -21.8981  -22.9161 C   0  0  0  0  0  0
  -19.1465  -23.9703  -25.0194 C   0  0  0  0  0  0
  -18.6517  -23.1890  -25.8588 O   0  5  0  0  0  0
  -18.7689  -25.1497  -24.8134 O   0  0  0  0  0  0
  -25.5215  -23.3215  -24.0133 O   0  0  0  0  0  0
  -28.0553  -22.1840  -20.9754 O   0  0  0  0  0  0
  -34.9062  -21.4424  -25.5017 H   0  0  0  0  0  0
  -33.4155  -22.2641  -25.9469 H   0  0  0  0  0  0
  -34.1492  -22.5573  -24.3702 H   0  0  0  0  0  0
  -33.7359  -20.1418  -23.7438 H   0  0  0  0  0  0
  -32.9823  -19.8615  -25.2790 H   0  0  0  0  0  0
  -32.5844  -20.8163  -22.0013 H   0  0  0  0  0  0
  -32.0445  -22.4258  -22.4057 H   0  0  0  0  0  0
  -30.4213  -21.4603  -20.9226 H   0  0  0  0  0  0
  -30.3539  -19.9669  -21.8106 H   0  0  0  0  0  0
  -27.1664  -20.8066  -23.6438 H   0  0  0  0  0  0
  -25.5998  -22.2773  -21.5824 H   0  0  0  0  0  0
  -23.5792  -21.3401  -20.6657 H   0  0  0  0  0  0
  -22.2306  -19.3516  -20.1022 H   0  0  0  0  0  0
  -22.7231  -17.1596  -21.1795 H   0  0  0  0  0  0
  -24.5894  -16.9876  -22.8133 H   0  0  0  0  0  0
  -25.9253  -18.9543  -23.3941 H   0  0  0  0  0  0
  -23.6442  -20.8074  -23.9025 H   0  0  0  0  0  0
  -23.7536  -22.0132  -26.4012 H   0  0  0  0  0  0
  -21.4016  -21.5041  -26.4179 H   0  0  0  0  0  0
  -20.6658  -24.3494  -23.5795 H   0  0  0  0  0  0
  -20.5067  -23.3100  -21.3711 H   0  0  0  0  0  0
  -21.9818  -22.7097  -22.1222 H   0  0  0  0  0  0
  -20.8980  -21.5964  -21.2996 H   0  0  0  0  0  0
  -18.1859  -22.7410  -22.4577 H   0  0  0  0  0  0
  -18.1429  -21.6015  -23.8030 H   0  0  0  0  0  0
  -18.6520  -21.0614  -22.2187 H   0  0  0  0  0  0
  1  2  1  0  0  0
  1 37  1  0  0  0
  1 38  1  0  0  0
  1 39  1  0  0  0
  2  3  1  0  0  0
  2 40  1  0  0  0
  2 41  1  0  0  0
  3  8  1  0  0  0
  3  4  1  0  0  0
  4  5  1  0  0  0
  4 42  1  0  0  0
  4 43  1  0  0  0
  5  6  1  0  0  0
  5 44  1  0  0  0
  5 45  1  0  0  0
  6  7  1  0  0  0
  6 11  1  0  0  0
  7  8  1  0  0  0
  7 10  2  0  0  0
  8  9  2  0  0  0
 11 12  1  0  0  0
 11 36  2  0  0  0
 12 13  1  0  0  0
 12 46  1  0  0  0
 13 14  1  0  0  0
 13 20  1  0  0  0
 13 47  1  0  0  0
 14 19  1  0  0  0
 14 15  2  0  0  0
 15 16  1  0  0  0
 15 48  1  0  0  0
 16 17  2  0  0  0
 16 49  1  0  0  0
 17 18  1  0  0  0
 17 50  1  0  0  0
 18 19  2  0  0  0
 18 51  1  0  0  0
 19 52  1  0  0  0
 20 21  1  0  0  0
 20 35  2  0  0  0
 21 22  1  0  0  0
 21 53  1  0  0  0
 22 25  1  0  0  0
 22 23  1  0  0  0
 22 54  1  0  0  0
 23 30  1  0  0  0
 23 24  1  0  0  0
 23 55  1  0  0  0
 24 25  1  0  0  0
 24 27  1  0  0  0
 25 26  2  0  0  0
 27 28  1  0  0  0
 27 32  1  0  0  0
 27 56  1  0  0  0
 28 29  1  0  0  0
 28 30  1  0  0  0
 28 31  1  0  0  0
 29 57  1  0  0  0
 29 58  1  0  0  0
 29 59  1  0  0  0
 31 60  1  0  0  0
 31 61  1  0  0  0
 31 62  1  0  0  0
 32 33  1  0  0  0
 32 34  2  0  0  0
M  CHG  1  33  -1
M  END
> <s_m_entry_id>
27767

> <s_m_entry_name>
data_maestro.11

> <s_m_Source_Path>
C:\Users\olshana1\Git\GramNeg-Accumulation\Gram Negative Permeation - OmpF

> <s_m_Source_File>
data_maestro.csv

> <i_m_Source_File_Index>
11

> <s_m_job_name>
glide-dock_Nicaido_neutral

> <s_i_glide_gridfile>
3POX-grid

> <i_i_glide_lignum>
15

> <i_i_glide_rotatable_bonds>
9

> <r_i_docking_score>
-3.45354634345997

> <r_i_glide_ligand_efficiency>
-0.095931842873888

> <r_i_glide_ligand_efficiency_sa>
-0.316759965643597

> <r_i_glide_ligand_efficiency_ln>
-0.753470508103375

> <r_i_glide_gscore>
-3.45354634345997

> <r_i_glide_lipo>
-0.0380597188526193

> <r_i_glide_hbond>
-0.439542590289296

> <r_i_glide_metal>
0

> <r_i_glide_rewards>
0.010764763238256

> <r_i_glide_evdw>
-28.5733184814453

> <r_i_glide_ecoul>
-9.18659496307373

> <r_i_glide_erotb>
0.461572583116075

> <r_i_glide_esite>
-0.641626212139059

> <r_i_glide_emodel>
-50.1915702763018

> <r_i_glide_energy>
-37.759913444519

> <r_i_glide_einternal>
13.1216449737549

> <i_i_glide_confnum>
20

> <i_i_glide_posenum>
292

> <r_i_glide_eff_state_penalty>
0

> <r_glide_res:A132_vdw>
-1.02926893745619

> <r_glide_res:A132_coul>
-21.3773099317026

> <r_glide_res:A132_hbond>
0

> <r_glide_res:A132_dist>
3.52836540817816

> <r_glide_res:A132_Eint>
-22.4065788691588

> <r_glide_res:A117_vdw>
-3.28727938771786

> <r_glide_res:A117_coul>
12.8593441301975

> <r_glide_res:A117_hbond>
0

> <r_glide_res:A117_dist>
2.45250419070093

> <r_glide_res:A117_Eint>
9.57206474247966

> <r_glide_res:A113_vdw>
-2.16515330054851

> <r_glide_res:A113_coul>
9.68410851832821

> <r_glide_res:A113_hbond>
0

> <r_glide_res:A113_dist>
2.80212004552495

> <r_glide_res:A113_Eint>
7.5189552177797

> <r_glide_res:A82_vdw>
-2.12778200747508

> <r_glide_res:A82_coul>
-26.3254092716182

> <r_glide_res:A82_hbond>
0

> <r_glide_res:A82_dist>
2.5853111813645

> <r_glide_res:A82_Eint>
-28.4531912790933

> <r_glide_res:A42_vdw>
-2.74751856078819

> <r_glide_res:A42_coul>
-28.7999572270029

> <r_glide_res:A42_hbond>
-0.15725872953833

> <r_glide_res:A42_dist>
2.26742348395072

> <r_glide_res:A42_Eint>
-31.7047345173295

> <r_glide_res:A16_vdw>
-0.681767598162618

> <r_glide_res:A16_coul>
-20.7523228841157

> <r_glide_res:A16_hbond>
-0.0970268199054373

> <r_glide_res:A16_dist>
2.16922138499984

> <r_glide_res:A16_Eint>
-21.5311173021838

> <s_m_source_file>
ligprep_Nicaido_neutral.maegz

> <i_m_source_file_index>
11

> <i_lp_mmshare_version>
58128

> <i_f3d_flags>
0

> <s_lp_Force_Field>
S-OPLS

> <r_lp_Energy>
67.572455

> <b_lp_Chiralities_Consistent>
1

> <s_lp_Variant>
Piperacillin-1

> <s_epik_input>
W0NIM11bQ0gyXU4xW0NIMl1bQ0gyXU4oQyg9TylDMT1PKUMoPU8pW05IXVtDQEhdKGMyW2NIXVtjSF1bY0hdW2NIXVtjSF0yKUMoPU8pW05IXVtDQEBIXTNDKD1PKU4oW0NAQEhdMzQpW0NASF0oQyhTNCkoW0NIM10pW0NIM10pQyg9TylbT0hd

> <s_epik_cmdline>
J2VwaWtfcHl0aG9uJywgJy1waHQnLCAnMC4wJywgJy1waCcsICc3LjQnLCAnLW50JywgJy1tYScsICc1MDAnLCAnLWltYWUnLCAnPGluZmlsZS5tYWU+JywgJy1vbWFlJywgJzxvdXRmaWxlLm1hZT4n

> <r_lp_tautomer_probability>
1

> <r_epik_Ionization_Penalty>
  0.0049

> <r_epik_Ionization_Penalty_Charging>
  0.0000

> <r_epik_Ionization_Penalty_Neutral>
  0.0049

> <r_epik_State_Penalty>
  0.0000

> <r_epik_Charging_Adjusted_Penalty>
1.13204004886318e-05

> <i_epik_Tot_Q>
-1

> <i_epik_Tot_abs_Q>
1

> <s_epik_Chemistry_Notes>
This compound contains an acetal/aminal-like group ( X-CH(R)-Y where X, Y are N, S, or O) that may be acid/base labile, releasing an aldehyde.

> <s_m_subgroup_title>
glide-dock_Nicaido_neutral_pv1

> <s_m_subgroupid>
glide-dock_Nicaido_neutral_pv1

> <b_m_subgroup_collapsed>
0

$$$$
BL-S217
                    3D
 Schrodinger Suite 2022-2.
 48 50  0  0  1  0            999 V2000
  -28.9713  -23.4453  -22.7532 O   0  0  0  0  0  0
  -29.3320  -22.3497  -22.3679 C   0  0  0  0  0  0
  -29.7377  -21.6726  -21.0318 C   0  0  2  0  0  0
  -29.6042  -20.3464  -21.8114 C   0  0  1  0  0  0
  -29.5752  -21.1489  -23.0190 N   0  0  0  0  0  0
  -29.5669  -20.5870  -24.3106 C   0  0  0  0  0  0
  -29.0588  -21.5495  -25.4300 C   0  0  0  0  0  0
  -29.8097  -21.7369  -26.4134 O   0  5  0  0  0  0
  -27.9689  -22.1242  -25.2134 O   0  0  0  0  0  0
  -29.9137  -19.2925  -24.5550 C   0  0  0  0  0  0
  -30.3879  -18.3287  -23.4705 C   0  0  0  0  0  0
  -30.9693  -19.1550  -21.9695 S   0  0  0  0  0  0
  -29.7843  -18.6338  -25.9247 C   0  0  0  0  0  0
  -30.8107  -19.0705  -26.8130 O   0  0  0  0  0  0
  -31.8373  -18.3094  -27.2532 C   0  0  0  0  0  0
  -31.8555  -16.8463  -26.8294 C   0  0  0  0  0  0
  -32.7055  -18.7495  -28.0049 O   0  0  0  0  0  0
  -28.7689  -21.7438  -19.9328 N   0  0  0  0  0  0
  -28.2001  -22.8501  -19.4289 C   0  0  0  0  0  0
  -27.4948  -22.7065  -18.0840 C   0  0  0  0  0  0
  -25.6901  -22.7466  -18.2494 S   0  0  0  0  0  0
  -25.2211  -21.0525  -18.2769 C   0  0  0  0  0  0
  -24.4675  -20.5248  -17.2133 C   0  0  0  0  0  0
  -24.1300  -19.1570  -17.2238 C   0  0  0  0  0  0
  -24.5169  -18.3657  -18.2559 N   0  3  0  0  0  0
  -24.1390  -16.9507  -18.2619 C   0  0  0  0  0  0
  -25.2269  -18.8531  -19.3040 C   0  0  0  0  0  0
  -25.6024  -20.2118  -19.3421 C   0  0  0  0  0  0
  -28.2207  -23.9496  -19.9831 O   0  0  0  0  0  0
  -30.7646  -21.8649  -20.7173 H   0  0  0  0  0  0
  -28.6497  -19.8353  -21.6632 H   0  0  0  0  0  0
  -29.5691  -17.6560  -23.2135 H   0  0  0  0  0  0
  -31.2044  -17.7125  -23.8444 H   0  0  0  0  0  0
  -29.7241  -17.5510  -25.8166 H   0  0  0  0  0  0
  -28.8293  -18.9313  -26.3581 H   0  0  0  0  0  0
  -32.7297  -16.3409  -27.2392 H   0  0  0  0  0  0
  -31.8833  -16.7491  -25.7451 H   0  0  0  0  0  0
  -30.9653  -16.3495  -27.2133 H   0  0  0  0  0  0
  -28.7432  -20.9146  -19.3528 H   0  0  0  0  0  0
  -27.8013  -23.5330  -17.4422 H   0  0  0  0  0  0
  -27.8015  -21.7898  -17.5780 H   0  0  0  0  0  0
  -24.1777  -21.1525  -16.3823 H   0  0  0  0  0  0
  -23.5691  -18.6859  -16.4289 H   0  0  0  0  0  0
  -23.4801  -16.7450  -17.4181 H   0  0  0  0  0  0
  -23.6122  -16.7495  -19.1940 H   0  0  0  0  0  0
  -25.0461  -16.3498  -18.1892 H   0  0  0  0  0  0
  -25.4894  -18.1467  -20.0794 H   0  0  0  0  0  0
  -26.1778  -20.5929  -20.1733 H   0  0  0  0  0  0
  1  2  2  0  0  0
  2  5  1  0  0  0
  2  3  1  0  0  0
  3  4  1  0  0  0
  3 18  1  0  0  0
  3 30  1  0  0  0
  4 12  1  0  0  0
  4  5  1  0  0  0
  4 31  1  0  0  0
  5  6  1  0  0  0
  6  7  1  0  0  0
  6 10  2  0  0  0
  7  8  1  0  0  0
  7  9  2  0  0  0
 10 11  1  0  0  0
 10 13  1  0  0  0
 11 12  1  0  0  0
 11 32  1  0  0  0
 11 33  1  0  0  0
 13 14  1  0  0  0
 13 34  1  0  0  0
 13 35  1  0  0  0
 14 15  1  0  0  0
 15 16  1  0  0  0
 15 17  2  0  0  0
 16 36  1  0  0  0
 16 37  1  0  0  0
 16 38  1  0  0  0
 18 19  1  0  0  0
 18 39  1  0  0  0
 19 20  1  0  0  0
 19 29  2  0  0  0
 20 21  1  0  0  0
 20 40  1  0  0  0
 20 41  1  0  0  0
 21 22  1  0  0  0
 22 28  1  0  0  0
 22 23  2  0  0  0
 23 24  1  0  0  0
 23 42  1  0  0  0
 24 25  2  0  0  0
 24 43  1  0  0  0
 25 26  1  0  0  0
 25 27  1  0  0  0
 26 44  1  0  0  0
 26 45  1  0  0  0
 26 46  1  0  0  0
 27 28  2  0  0  0
 27 47  1  0  0  0
 28 48  1  0  0  0
M  CHG  2   8  -1  25   1
M  END
> <s_m_entry_id>
27768

> <s_m_entry_name>
data_maestro.17

> <s_m_Source_Path>
C:\Users\olshana1\Git\GramNeg-Accumulation\Gram Negative Permeation - OmpF

> <s_m_Source_File>
data_maestro.csv

> <i_m_Source_File_Index>
17

> <s_m_job_name>
glide-dock_Nicaido_neutral

> <s_i_glide_gridfile>
3POX-grid

> <i_i_glide_lignum>
22

> <i_i_glide_rotatable_bonds>
9

> <r_i_docking_score>
-3.42650190681125

> <r_i_glide_ligand_efficiency>
-0.118155238165905

> <r_i_glide_ligand_efficiency_sa>
-0.363010325852574

> <r_i_glide_ligand_efficiency_ln>
-0.784582048068372

> <r_i_glide_gscore>
-3.42650190681125

> <r_i_glide_lipo>
-0.13985056120747

> <r_i_glide_hbond>
-0.774124857450439

> <r_i_glide_metal>
0

> <r_i_glide_rewards>
2.16879063428324

> <r_i_glide_evdw>
-32.4268951416016

> <r_i_glide_ecoul>
-21.8235702514648

> <r_i_glide_erotb>
0.729326637690335

> <r_i_glide_esite>
-0.515763465327108

> <r_i_glide_emodel>
-62.8412776549357

> <r_i_glide_energy>
-54.2504653930664

> <r_i_glide_einternal>
10.4440269470215

> <i_i_glide_confnum>
59

> <i_i_glide_posenum>
295

> <r_i_glide_eff_state_penalty>
0

> <r_glide_res:A132_vdw>
-0.699700076208818

> <r_glide_res:A132_coul>
-17.5319763991343

> <r_glide_res:A132_hbond>
-0.16

> <r_glide_res:A132_dist>
1.82285922815272

> <r_glide_res:A132_Eint>
-18.3916764753431

> <r_glide_res:A117_vdw>
-4.0403066027608

> <r_glide_res:A117_coul>
-2.36559820626862

> <r_glide_res:A117_hbond>
0

> <r_glide_res:A117_dist>
2.50542195260366

> <r_glide_res:A117_Eint>
-6.40590480902941

> <r_glide_res:A113_vdw>
-3.4620011435715

> <r_glide_res:A113_coul>
-11.1294309565927

> <r_glide_res:A113_hbond>
-0.00291344230813004

> <r_glide_res:A113_dist>
2.48057436516059

> <r_glide_res:A113_Eint>
-14.5943455424723

> <r_glide_res:A82_vdw>
-1.64538271119808

> <r_glide_res:A82_coul>
-25.4397028699782

> <r_glide_res:A82_hbond>
-0.0338891935612266

> <r_glide_res:A82_dist>
2.41527701609693

> <r_glide_res:A82_Eint>
-27.1189747747375

> <r_glide_res:A42_vdw>
1.56419577457178

> <r_glide_res:A42_coul>
-40.7854152926906

> <r_glide_res:A42_hbond>
-0.377322221581082

> <r_glide_res:A42_dist>
1.70942036995289

> <r_glide_res:A42_Eint>
-39.5985417396999

> <r_glide_res:A16_vdw>
-0.229867797606199

> <r_glide_res:A16_coul>
-39.9706194984358

> <r_glide_res:A16_hbond>
-0.2

> <r_glide_res:A16_dist>
1.86444288816816

> <r_glide_res:A16_Eint>
-40.400487296042

> <s_m_source_file>
ligprep_Nicaido_neutral.maegz

> <i_m_source_file_index>
17

> <i_lp_mmshare_version>
58128

> <i_f3d_flags>
0

> <s_lp_Force_Field>
S-OPLS

> <r_lp_Energy>
45.233938

> <b_lp_Chiralities_Consistent>
1

> <s_lp_Variant>
BL-S217-1

> <s_epik_input>
W0NIM11DKD1PKU9bQ0gyXUMoW0NIMl1TMSk9QyhDKD1PKVtPSF0pTihbQ0BASF0xMilDKD1PKVtDQEhdMltOSF1DKD1PKVtDSDJdU2MzW2NIXVtjSF1bbitdKFtDSDNdKVtjSF1bY0hdMw==

> <s_epik_cmdline>
J2VwaWtfcHl0aG9uJywgJy1waHQnLCAnMC4wJywgJy1waCcsICc3LjQnLCAnLW50JywgJy1tYScsICc1MDAnLCAnLWltYWUnLCAnPGluZmlsZS5tYWU+JywgJy1vbWFlJywgJzxvdXRmaWxlLm1hZT4n

> <r_lp_tautomer_probability>
1

> <r_epik_Ionization_Penalty>
  0.0000

> <r_epik_Ionization_Penalty_Charging>
  0.0000

> <r_epik_Ionization_Penalty_Neutral>
  0.0000

> <r_epik_State_Penalty>
  0.0000

> <r_epik_Charging_Adjusted_Penalty>
6.14912740637116e-06

> <i_epik_Tot_Q>
0

> <i_epik_Tot_abs_Q>
2

> <s_epik_Chemistry_Notes>
This compound has an ester and may undergo hydrolysis at high or low pH. This compound contains an acetal/aminal-like group ( X-CH(R)-Y where X, Y are N, S, or O) that may be acid/base labile, releasing an aldehyde.

> <s_m_subgroup_title>
glide-dock_Nicaido_neutral_pv1

> <s_m_subgroupid>
glide-dock_Nicaido_neutral_pv1

> <b_m_subgroup_collapsed>
0

$$$$
Cephalothin
                    3D
 Schrodinger Suite 2022-2.
 41 43  0  0  1  0            999 V2000
  -32.4593  -23.5801  -21.5382 C   0  0  0  0  0  0
  -31.1252  -23.6942  -20.8142 C   0  0  0  0  0  0
  -30.4379  -22.5503  -20.8167 O   0  0  0  0  0  0
  -29.1789  -22.4707  -20.1672 C   0  0  0  0  0  0
  -28.2527  -21.5913  -20.9701 C   0  0  0  0  0  0
  -27.3082  -22.0624  -21.8077 C   0  0  0  0  0  0
  -26.4972  -21.1353  -22.4635 N   0  0  0  0  0  0
  -25.8072  -20.1041  -21.6936 C   0  0  1  0  0  0
  -25.3608  -19.5713  -23.0743 C   0  0  2  0  0  0
  -25.6602  -21.0182  -23.5548 C   0  0  0  0  0  0
  -25.3476  -21.7801  -24.4477 O   0  0  0  0  0  0
  -23.9595  -19.1502  -23.1709 N   0  0  0  0  0  0
  -22.8547  -19.7895  -22.7438 C   0  0  0  0  0  0
  -21.5243  -19.2198  -23.2135 C   0  0  0  0  0  0
  -21.2080  -19.8040  -24.5504 C   0  0  0  0  0  0
  -21.8215  -19.5498  -25.7536 C   0  0  0  0  0  0
  -21.2996  -20.3362  -26.8209 C   0  0  0  0  0  0
  -20.2782  -21.1530  -26.4170 C   0  0  0  0  0  0
  -19.9707  -21.0209  -24.7120 S   0  0  0  0  0  0
  -22.8586  -20.8199  -22.0713 O   0  0  0  0  0  0
  -26.9489  -19.1919  -20.5835 S   0  0  0  0  0  0
  -28.4981  -20.0956  -20.8419 C   0  0  0  0  0  0
  -27.0037  -23.5783  -22.0127 C   0  0  0  0  0  0
  -27.9346  -24.3188  -22.4133 O   0  5  0  0  0  0
  -25.8396  -23.9495  -21.7525 O   0  0  0  0  0  0
  -30.7631  -24.7499  -20.2989 O   0  0  0  0  0  0
  -32.4699  -22.7094  -22.1939 H   0  0  0  0  0  0
  -32.6426  -24.4710  -22.1390 H   0  0  0  0  0  0
  -33.2676  -23.4773  -20.8145 H   0  0  0  0  0  0
  -28.7309  -23.4533  -20.0261 H   0  0  0  0  0  0
  -29.2735  -22.0376  -19.1769 H   0  0  0  0  0  0
  -25.0302  -20.5650  -21.0841 H   0  0  0  0  0  0
  -26.0481  -18.8174  -23.4640 H   0  0  0  0  0  0
  -23.8196  -18.3170  -23.7301 H   0  0  0  0  0  0
  -20.7491  -19.4781  -22.4908 H   0  0  0  0  0  0
  -21.5615  -18.1332  -23.2476 H   0  0  0  0  0  0
  -22.6280  -18.8435  -25.8991 H   0  0  0  0  0  0
  -21.6740  -20.2605  -27.8324 H   0  0  0  0  0  0
  -19.6997  -21.8406  -27.0148 H   0  0  0  0  0  0
  -28.9815  -19.7352  -21.7499 H   0  0  0  0  0  0
  -29.1678  -19.8702  -20.0152 H   0  0  0  0  0  0
  1  2  1  0  0  0
  1 27  1  0  0  0
  1 28  1  0  0  0
  1 29  1  0  0  0
  2  3  1  0  0  0
  2 26  2  0  0  0
  3  4  1  0  0  0
  4  5  1  0  0  0
  4 30  1  0  0  0
  4 31  1  0  0  0
  5 22  1  0  0  0
  5  6  2  0  0  0
  6  7  1  0  0  0
  6 23  1  0  0  0
  7 10  1  0  0  0
  7  8  1  0  0  0
  8  9  1  0  0  0
  8 21  1  0  0  0
  8 32  1  0  0  0
  9 10  1  0  0  0
  9 12  1  0  0  0
  9 33  1  0  0  0
 10 11  2  0  0  0
 12 13  1  0  0  0
 12 34  1  0  0  0
 13 14  1  0  0  0
 13 20  2  0  0  0
 14 15  1  0  0  0
 14 35  1  0  0  0
 14 36  1  0  0  0
 15 19  1  0  0  0
 15 16  2  0  0  0
 16 17  1  0  0  0
 16 37  1  0  0  0
 17 18  2  0  0  0
 17 38  1  0  0  0
 18 19  1  0  0  0
 18 39  1  0  0  0
 21 22  1  0  0  0
 22 40  1  0  0  0
 22 41  1  0  0  0
 23 24  1  0  0  0
 23 25  2  0  0  0
M  CHG  1  24  -1
M  END
> <s_m_entry_id>
27769

> <s_m_entry_name>
data_maestro.33

> <s_m_Source_Path>
C:\Users\olshana1\Git\GramNeg-Accumulation\Gram Negative Permeation - OmpF

> <s_m_Source_File>
data_maestro.csv

> <i_m_Source_File_Index>
33

> <s_m_job_name>
glide-dock_Nicaido_neutral

> <s_i_glide_gridfile>
3POX-grid

> <i_i_glide_lignum>
42

> <i_i_glide_rotatable_bonds>
8

> <r_i_docking_score>
-3.42216189191122

> <r_i_glide_ligand_efficiency>
-0.131621611227354

> <r_i_glide_ligand_efficiency_sa>
-0.389928505355006

> <r_i_glide_ligand_efficiency_ln>
-0.803683491286301

> <r_i_glide_gscore>
-3.42216189191122

> <r_i_glide_lipo>
-0.355746699812354

> <r_i_glide_hbond>
-0.492175941447799

> <r_i_glide_metal>
0

> <r_i_glide_rewards>
-0.711891763762776

> <r_i_glide_evdw>
-23.5483818054199

> <r_i_glide_ecoul>
-6.08021402359009

> <r_i_glide_erotb>
0.625287901339008

> <r_i_glide_esite>
-0.398184194417786

> <r_i_glide_emodel>
-44.8372064046609

> <r_i_glide_energy>
-29.62859582901

> <r_i_glide_einternal>
5.53154611587524

> <i_i_glide_confnum>
125

> <i_i_glide_posenum>
139

> <r_i_glide_eff_state_penalty>
0

> <r_glide_res:A132_vdw>
-0.606607444219003

> <r_glide_res:A132_coul>
-49.1839622189557

> <r_glide_res:A132_hbond>
-0.188551312921478

> <r_glide_res:A132_dist>
1.96659220848096

> <r_glide_res:A132_Eint>
-49.9791209760962

> <r_glide_res:A117_vdw>
-3.63510952745841

> <r_glide_res:A117_coul>
11.0652154393123

> <r_glide_res:A117_hbond>
-0.0536011341133003

> <r_glide_res:A117_dist>
2.36258143427187

> <r_glide_res:A117_Eint>
7.37650477774059

> <r_glide_res:A113_vdw>
-0.956961055187187

> <r_glide_res:A113_coul>
21.4723197319776

> <r_glide_res:A113_hbond>
0

> <r_glide_res:A113_dist>
2.19104691105551

> <r_glide_res:A113_Eint>
20.5153586767904

> <r_glide_res:A82_vdw>
1.01939655716687

> <r_glide_res:A82_coul>
-50.7260291995094

> <r_glide_res:A82_hbond>
-0.25002349441302

> <r_glide_res:A82_dist>
1.72084759487627

> <r_glide_res:A82_Eint>
-49.9566561367556

> <r_glide_res:A42_vdw>
-1.15561657054285

> <r_glide_res:A42_coul>
-32.7861233688351

> <r_glide_res:A42_hbond>
0

> <r_glide_res:A42_dist>
2.58054666721249

> <r_glide_res:A42_Eint>
-33.9417399393779

> <r_glide_res:A16_vdw>
-0.134921720209944

> <r_glide_res:A16_coul>
-18.7885739599673

> <r_glide_res:A16_hbond>
0

> <r_glide_res:A16_dist>
6.19032154930666

> <r_glide_res:A16_Eint>
-18.9234956801772

> <s_m_source_file>
ligprep_Nicaido_neutral.maegz

> <i_m_source_file_index>
33

> <i_lp_mmshare_version>
58128

> <i_f3d_flags>
0

> <s_lp_Force_Field>
S-OPLS

> <r_lp_Energy>
31.39315

> <b_lp_Chiralities_Consistent>
1

> <s_lp_Variant>
Cephalothin-1

> <s_epik_input>
W0NIM11DKD1PKU9bQ0gyXUMoPUMxQyg9TylbT0hdKVtDSDJdU1tDQEBIXShOMTIpW0NASF0oQzI9TylbTkhdQyg9TylbQ0gyXWMzW2NIXVtjSF1bY0hdczM=

> <s_epik_cmdline>
J2VwaWtfcHl0aG9uJywgJy1waHQnLCAnMC4wJywgJy1waCcsICc3LjQnLCAnLW50JywgJy1tYScsICc1MDAnLCAnLWltYWUnLCAnPGluZmlsZS5tYWU+JywgJy1vbWFlJywgJzxvdXRmaWxlLm1hZT4n

> <r_lp_tautomer_probability>
1

> <r_epik_Ionization_Penalty>
  0.0000

> <r_epik_Ionization_Penalty_Charging>
  0.0000

> <r_epik_Ionization_Penalty_Neutral>
  0.0000

> <r_epik_State_Penalty>
  0.0000

> <r_epik_Charging_Adjusted_Penalty>
6.16900125885048e-06

> <i_epik_Tot_Q>
-1

> <i_epik_Tot_abs_Q>
1

> <s_epik_Chemistry_Notes>
This compound has an ester and may undergo hydrolysis at high or low pH. This compound contains an acetal/aminal-like group ( X-CH(R)-Y where X, Y are N, S, or O) that may be acid/base labile, releasing an aldehyde.

> <s_m_subgroup_title>
glide-dock_Nicaido_neutral_pv1

> <s_m_subgroupid>
glide-dock_Nicaido_neutral_pv1

> <b_m_subgroup_collapsed>
0

$$$$
Piperacillin
                    3D
 Schrodinger Suite 2022-2.
 62 65  0  0  1  0            999 V2000
  -32.0887  -19.2241  -21.5899 C   0  0  0  0  0  0
  -30.8866  -18.2674  -21.5558 C   0  0  0  0  0  0
  -29.6062  -18.9820  -21.6702 N   0  0  0  0  0  0
  -28.8541  -19.1779  -20.4351 C   0  0  0  0  0  0
  -27.3390  -19.1495  -20.6795 C   0  0  0  0  0  0
  -26.9023  -19.9499  -21.8482 N   0  0  0  0  0  0
  -27.7960  -20.2149  -22.8625 C   0  0  0  0  0  0
  -29.1681  -19.4680  -22.8507 C   0  0  0  0  0  0
  -29.7958  -19.3716  -23.9093 O   0  0  0  0  0  0
  -27.6029  -20.9873  -23.8137 O   0  0  0  0  0  0
  -25.5861  -20.3450  -21.8137 C   0  0  0  0  0  0
  -25.1684  -21.1812  -22.7818 N   0  0  0  0  0  0
  -23.8306  -21.7446  -22.9281 C   0  0  2  0  0  0
  -23.3537  -21.6532  -24.3408 C   0  0  0  0  0  0
  -21.9636  -21.5889  -24.6097 C   0  0  0  0  0  0
  -21.4682  -21.5377  -25.9262 C   0  0  0  0  0  0
  -22.3612  -21.5481  -27.0097 C   0  0  0  0  0  0
  -23.7411  -21.6021  -26.7706 C   0  0  0  0  0  0
  -24.2306  -21.6436  -25.4540 C   0  0  0  0  0  0
  -23.8728  -23.2512  -22.6369 C   0  0  0  0  0  0
  -22.8025  -23.7376  -22.0005 N   0  0  0  0  0  0
  -22.7742  -25.0093  -21.3001 C   0  0  1  0  0  0
  -21.4742  -25.1710  -20.5045 C   0  0  2  0  0  0
  -22.2544  -24.9927  -19.2971 N   0  0  0  0  0  0
  -23.4614  -24.9112  -19.9305 C   0  0  0  0  0  0
  -24.5908  -24.7494  -19.5192 O   0  0  0  0  0  0
  -21.7407  -24.4018  -18.0888 C   0  0  2  0  0  0
  -20.7327  -23.3201  -18.6118 C   0  0  0  0  0  0
  -21.4669  -21.9769  -18.7859 C   0  0  0  0  0  0
  -20.1947  -23.8884  -20.2747 S   0  0  0  0  0  0
  -19.5028  -23.0949  -17.7101 C   0  0  0  0  0  0
  -21.1680  -25.5240  -17.2123 C   0  0  0  0  0  0
  -21.5690  -25.5514  -16.0284 O   0  5  0  0  0  0
  -20.3691  -26.3490  -17.7195 O   0  0  0  0  0  0
  -24.8479  -23.9478  -22.9398 O   0  0  0  0  0  0
  -24.8066  -20.0010  -20.9246 O   0  0  0  0  0  0
  -33.0213  -18.6799  -21.4248 H   0  0  0  0  0  0
  -32.1740  -19.7342  -22.5496 H   0  0  0  0  0  0
  -32.0106  -19.9838  -20.8132 H   0  0  0  0  0  0
  -30.9226  -17.6762  -20.6407 H   0  0  0  0  0  0
  -30.9704  -17.5499  -22.3702 H   0  0  0  0  0  0
  -29.1107  -18.4312  -19.6809 H   0  0  0  0  0  0
  -29.1401  -20.1431  -20.0159 H   0  0  0  0  0  0
  -26.8774  -19.4915  -19.7509 H   0  0  0  0  0  0
  -27.0068  -18.1215  -20.8124 H   0  0  0  0  0  0
  -25.8578  -21.4381  -23.4744 H   0  0  0  0  0  0
  -23.1224  -21.2522  -22.2577 H   0  0  0  0  0  0
  -21.2591  -21.5807  -23.7913 H   0  0  0  0  0  0
  -20.4042  -21.4923  -26.1066 H   0  0  0  0  0  0
  -21.9894  -21.5133  -28.0223 H   0  0  0  0  0  0
  -24.4203  -21.6027  -27.6080 H   0  0  0  0  0  0
  -25.2989  -21.6765  -25.3095 H   0  0  0  0  0  0
  -22.0462  -23.1010  -21.7917 H   0  0  0  0  0  0
  -23.0241  -25.8786  -21.9089 H   0  0  0  0  0  0
  -21.0342  -26.1671  -20.5783 H   0  0  0  0  0  0
  -22.5554  -23.9261  -17.5365 H   0  0  0  0  0  0
  -21.8176  -21.5901  -17.8288 H   0  0  0  0  0  0
  -22.3378  -22.0686  -19.4368 H   0  0  0  0  0  0
  -20.8150  -21.2200  -19.2236 H   0  0  0  0  0  0
  -19.8017  -22.8211  -16.6964 H   0  0  0  0  0  0
  -18.8724  -23.9829  -17.6487 H   0  0  0  0  0  0
  -18.8747  -22.2902  -18.0957 H   0  0  0  0  0  0
  1  2  1  0  0  0
  1 37  1  0  0  0
  1 38  1  0  0  0
  1 39  1  0  0  0
  2  3  1  0  0  0
  2 40  1  0  0  0
  2 41  1  0  0  0
  3  8  1  0  0  0
  3  4  1  0  0  0
  4  5  1  0  0  0
  4 42  1  0  0  0
  4 43  1  0  0  0
  5  6  1  0  0  0
  5 44  1  0  0  0
  5 45  1  0  0  0
  6  7  1  0  0  0
  6 11  1  0  0  0
  7  8  1  0  0  0
  7 10  2  0  0  0
  8  9  2  0  0  0
 11 12  1  0  0  0
 11 36  2  0  0  0
 12 13  1  0  0  0
 12 46  1  0  0  0
 13 14  1  0  0  0
 13 20  1  0  0  0
 13 47  1  0  0  0
 14 19  1  0  0  0
 14 15  2  0  0  0
 15 16  1  0  0  0
 15 48  1  0  0  0
 16 17  2  0  0  0
 16 49  1  0  0  0
 17 18  1  0  0  0
 17 50  1  0  0  0
 18 19  2  0  0  0
 18 51  1  0  0  0
 19 52  1  0  0  0
 20 21  1  0  0  0
 20 35  2  0  0  0
 21 22  1  0  0  0
 21 53  1  0  0  0
 22 25  1  0  0  0
 22 23  1  0  0  0
 22 54  1  0  0  0
 23 30  1  0  0  0
 23 24  1  0  0  0
 23 55  1  0  0  0
 24 25  1  0  0  0
 24 27  1  0  0  0
 25 26  2  0  0  0
 27 28  1  0  0  0
 27 32  1  0  0  0
 27 56  1  0  0  0
 28 29  1  0  0  0
 28 30  1  0  0  0
 28 31  1  0  0  0
 29 57  1  0  0  0
 29 58  1  0  0  0
 29 59  1  0  0  0
 31 60  1  0  0  0
 31 61  1  0  0  0
 31 62  1  0  0  0
 32 33  1  0  0  0
 32 34  2  0  0  0
M  CHG  1  33  -1
M  END
> <s_m_entry_id>
27770

> <s_m_entry_name>
data_maestro.11

> <s_m_Source_Path>
C:\Users\olshana1\Git\GramNeg-Accumulation\Gram Negative Permeation - OmpF

> <s_m_Source_File>
data_maestro.csv

> <i_m_Source_File_Index>
11

> <s_m_job_name>
glide-dock_Nicaido_neutral

> <s_i_glide_gridfile>
3POX-grid

> <i_i_glide_lignum>
15

> <i_i_glide_rotatable_bonds>
9

> <r_i_docking_score>
-3.41481496032629

> <r_i_glide_ligand_efficiency>
-0.0948559711201748

> <r_i_glide_ligand_efficiency_sa>
-0.313207515387939

> <r_i_glide_ligand_efficiency_ln>
-0.745020366704653

> <r_i_glide_gscore>
-3.41481496032629

> <r_i_glide_lipo>
-0.143256798093266

> <r_i_glide_hbond>
-0.364778751302861

> <r_i_glide_metal>
0

> <r_i_glide_rewards>
0.0289593800779524

> <r_i_glide_evdw>
-32.0334930419922

> <r_i_glide_ecoul>
-8.3117208480835

> <r_i_glide_erotb>
0.461572583116075

> <r_i_glide_esite>
-0.548878594812059

> <r_i_glide_emodel>
-56.7966071685981

> <r_i_glide_energy>
-40.3452138900757

> <r_i_glide_einternal>
4.55151319503784

> <i_i_glide_confnum>
217

> <i_i_glide_posenum>
135

> <r_i_glide_eff_state_penalty>
0

> <r_glide_res:A132_vdw>
-1.01096898242303

> <r_glide_res:A132_coul>
-24.8936082666603

> <r_glide_res:A132_hbond>
-0.0678689733123914

> <r_glide_res:A132_dist>
2.17675688862602

> <r_glide_res:A132_Eint>
-25.9724462223957

> <r_glide_res:A117_vdw>
-3.77994436411578

> <r_glide_res:A117_coul>
12.259766458759

> <r_glide_res:A117_hbond>
0

> <r_glide_res:A117_dist>
2.23750034922449

> <r_glide_res:A117_Eint>
8.47982209464324

> <r_glide_res:A113_vdw>
-1.12554211347586

> <r_glide_res:A113_coul>
10.5009709494538

> <r_glide_res:A113_hbond>
0

> <r_glide_res:A113_dist>
2.22895592120955

> <r_glide_res:A113_Eint>
9.37542883597795

> <r_glide_res:A82_vdw>
-1.25403746543344

> <r_glide_res:A82_coul>
-21.4148884876489

> <r_glide_res:A82_hbond>
0

> <r_glide_res:A82_dist>
2.77697171640758

> <r_glide_res:A82_Eint>
-22.6689259530823

> <r_glide_res:A42_vdw>
-1.44064189135836

> <r_glide_res:A42_coul>
-18.6093069779099

> <r_glide_res:A42_hbond>
0

> <r_glide_res:A42_dist>
2.20860876702305

> <r_glide_res:A42_Eint>
-20.0499488692683

> <r_glide_res:A16_vdw>
-0.225953251504581

> <r_glide_res:A16_coul>
-14.1155979848068

> <r_glide_res:A16_hbond>
0

> <r_glide_res:A16_dist>
4.60159241788269

> <r_glide_res:A16_Eint>
-14.3415512363114

> <s_m_source_file>
ligprep_Nicaido_neutral.maegz

> <i_m_source_file_index>
11

> <i_lp_mmshare_version>
58128

> <i_f3d_flags>
0

> <s_lp_Force_Field>
S-OPLS

> <r_lp_Energy>
67.572455

> <b_lp_Chiralities_Consistent>
1

> <s_lp_Variant>
Piperacillin-1

> <s_epik_input>
W0NIM11bQ0gyXU4xW0NIMl1bQ0gyXU4oQyg9TylDMT1PKUMoPU8pW05IXVtDQEhdKGMyW2NIXVtjSF1bY0hdW2NIXVtjSF0yKUMoPU8pW05IXVtDQEBIXTNDKD1PKU4oW0NAQEhdMzQpW0NASF0oQyhTNCkoW0NIM10pW0NIM10pQyg9TylbT0hd

> <s_epik_cmdline>
J2VwaWtfcHl0aG9uJywgJy1waHQnLCAnMC4wJywgJy1waCcsICc3LjQnLCAnLW50JywgJy1tYScsICc1MDAnLCAnLWltYWUnLCAnPGluZmlsZS5tYWU+JywgJy1vbWFlJywgJzxvdXRmaWxlLm1hZT4n

> <r_lp_tautomer_probability>
1

> <r_epik_Ionization_Penalty>
  0.0049

> <r_epik_Ionization_Penalty_Charging>
  0.0000

> <r_epik_Ionization_Penalty_Neutral>
  0.0049

> <r_epik_State_Penalty>
  0.0000

> <r_epik_Charging_Adjusted_Penalty>
1.13204004886318e-05

> <i_epik_Tot_Q>
-1

> <i_epik_Tot_abs_Q>
1

> <s_epik_Chemistry_Notes>
This compound contains an acetal/aminal-like group ( X-CH(R)-Y where X, Y are N, S, or O) that may be acid/base labile, releasing an aldehyde.

> <s_m_subgroup_title>
glide-dock_Nicaido_neutral_pv1

> <s_m_subgroupid>
glide-dock_Nicaido_neutral_pv1

> <b_m_subgroup_collapsed>
0

$$$$
Cefaclor
                    3D
 Schrodinger Suite 2022-2.
 37 39  0  0  1  0            999 V2000
  -27.0070  -23.1496  -23.8768 O   0  0  0  0  0  0
  -26.0853  -22.4559  -23.5021 C   0  0  0  0  0  0
  -25.8594  -21.2177  -22.5948 C   0  0  2  0  0  0
  -24.4056  -21.7242  -22.5179 C   0  0  1  0  0  0
  -24.7179  -22.4967  -23.7158 N   0  0  0  0  0  0
  -23.7090  -23.2933  -24.2723 C   0  0  0  0  0  0
  -23.9689  -24.8107  -24.4854 C   0  0  0  0  0  0
  -23.7342  -25.5507  -23.5056 O   0  5  0  0  0  0
  -24.3690  -25.1701  -25.6118 O   0  0  0  0  0  0
  -22.5233  -22.7145  -24.5415 C   0  0  0  0  0  0
  -22.2770  -21.2284  -24.3559 C   0  0  0  0  0  0
  -22.9522  -20.6196  -22.7779 S   0  0  0  0  0  0
  -21.1480  -23.5492  -25.1810 Cl  0  0  0  0  0  0
  -26.5273  -21.1953  -21.2830 N   0  0  0  0  0  0
  -26.8624  -22.2073  -20.4577 C   0  0  0  0  0  0
  -27.4134  -21.7938  -19.0785 C   0  0  2  0  0  0
  -26.1829  -21.6610  -18.2370 C   0  0  0  0  0  0
  -25.5668  -20.4007  -18.0496 C   0  0  0  0  0  0
  -24.3969  -20.2574  -17.2790 C   0  0  0  0  0  0
  -23.8175  -21.3804  -16.6632 C   0  0  0  0  0  0
  -24.4118  -22.6427  -16.8280 C   0  0  0  0  0  0
  -25.5767  -22.7755  -17.6075 C   0  0  0  0  0  0
  -28.3689  -22.7734  -18.5622 N   0  0  0  0  0  0
  -26.7398  -23.4053  -20.7431 O   0  0  0  0  0  0
  -25.9303  -20.2624  -23.1187 H   0  0  0  0  0  0
  -24.2193  -22.3928  -21.6727 H   0  0  0  0  0  0
  -21.2141  -20.9927  -24.4079 H   0  0  0  0  0  0
  -22.7668  -20.6957  -25.1713 H   0  0  0  0  0  0
  -26.7110  -20.2679  -20.9250 H   0  0  0  0  0  0
  -27.9291  -20.8349  -19.1629 H   0  0  0  0  0  0
  -25.9988  -19.5214  -18.5040 H   0  0  0  0  0  0
  -23.9534  -19.2806  -17.1510 H   0  0  0  0  0  0
  -22.9294  -21.2705  -16.0587 H   0  0  0  0  0  0
  -23.9840  -23.5109  -16.3513 H   0  0  0  0  0  0
  -26.0213  -23.7543  -17.7126 H   0  0  0  0  0  0
  -29.2815  -22.3449  -18.3886 H   0  0  0  0  0  0
  -28.5511  -23.4771  -19.2587 H   0  0  0  0  0  0
  1  2  2  0  0  0
  2  5  1  0  0  0
  2  3  1  0  0  0
  3  4  1  0  0  0
  3 14  1  0  0  0
  3 25  1  0  0  0
  4 12  1  0  0  0
  4  5  1  0  0  0
  4 26  1  0  0  0
  5  6  1  0  0  0
  6  7  1  0  0  0
  6 10  2  0  0  0
  7  8  1  0  0  0
  7  9  2  0  0  0
 10 11  1  0  0  0
 10 13  1  0  0  0
 11 12  1  0  0  0
 11 27  1  0  0  0
 11 28  1  0  0  0
 14 15  1  0  0  0
 14 29  1  0  0  0
 15 16  1  0  0  0
 15 24  2  0  0  0
 16 17  1  0  0  0
 16 23  1  0  0  0
 16 30  1  0  0  0
 17 22  1  0  0  0
 17 18  2  0  0  0
 18 19  1  0  0  0
 18 31  1  0  0  0
 19 20  2  0  0  0
 19 32  1  0  0  0
 20 21  1  0  0  0
 20 33  1  0  0  0
 21 22  2  0  0  0
 21 34  1  0  0  0
 22 35  1  0  0  0
 23 36  1  0  0  0
 23 37  1  0  0  0
M  CHG  1   8  -1
M  END
> <s_m_entry_id>
27771

> <s_m_entry_name>
data_maestro.15

> <s_m_Source_Path>
C:\Users\olshana1\Git\GramNeg-Accumulation\Gram Negative Permeation - OmpF

> <s_m_Source_File>
data_maestro.csv

> <i_m_Source_File_Index>
15

> <s_m_job_name>
glide-dock_Nicaido_neutral

> <s_i_glide_gridfile>
3POX-grid

> <i_i_glide_lignum>
20

> <i_i_glide_rotatable_bonds>
5

> <r_i_docking_score>
-3.33294072323982

> <r_i_glide_ligand_efficiency>
-0.138872530134993

> <r_i_glide_ligand_efficiency_sa>
-0.400577693405039

> <r_i_glide_ligand_efficiency_ln>
-0.797725653755461

> <r_i_glide_gscore>
-3.44934072323982

> <r_i_glide_lipo>
0

> <r_i_glide_hbond>
-0.458072825108904

> <r_i_glide_metal>
0

> <r_i_glide_rewards>
-0.907570409863191

> <r_i_glide_evdw>
-24.9193115234375

> <r_i_glide_ecoul>
-6.29923915863037

> <r_i_glide_erotb>
0.429266414571003

> <r_i_glide_esite>
-0.322112452872302

> <r_i_glide_emodel>
-44.6091916279619

> <r_i_glide_energy>
-31.2185506820679

> <r_i_glide_einternal>
5.46508264541626

> <i_i_glide_confnum>
17

> <i_i_glide_posenum>
195

> <r_i_glide_eff_state_penalty>
0.1164

> <r_glide_res:A132_vdw>
-2.2176308896352

> <r_glide_res:A132_coul>
-37.953525280709

> <r_glide_res:A132_hbond>
-0.0187237324814005

> <r_glide_res:A132_dist>
2.4531906687965

> <r_glide_res:A132_Eint>
-40.1898799028256

> <r_glide_res:A117_vdw>
-1.12440202368225

> <r_glide_res:A117_coul>
15.3916048769867

> <r_glide_res:A117_hbond>
0

> <r_glide_res:A117_dist>
3.79839504540096

> <r_glide_res:A117_Eint>
14.2672028533045

> <r_glide_res:A113_vdw>
-1.26173908405477

> <r_glide_res:A113_coul>
9.17588994011385

> <r_glide_res:A113_hbond>
-0.16

> <r_glide_res:A113_dist>
2.00993553200375

> <r_glide_res:A113_Eint>
7.75415085605908

> <r_glide_res:A82_vdw>
-1.62576717169359

> <r_glide_res:A82_coul>
-46.1226215347548

> <r_glide_res:A82_hbond>
-0.175028084083469

> <r_glide_res:A82_dist>
2.13241057874089

> <r_glide_res:A82_Eint>
-47.9234167905318

> <r_glide_res:A42_vdw>
-1.25526178672981

> <r_glide_res:A42_coul>
-39.1834429434727

> <r_glide_res:A42_hbond>
-0.0666744431053022

> <r_glide_res:A42_dist>
2.28510278797396

> <r_glide_res:A42_Eint>
-40.5053791733078

> <r_glide_res:A16_vdw>
-0.111651868231065

> <r_glide_res:A16_coul>
-18.1301086536463

> <r_glide_res:A16_hbond>
0

> <r_glide_res:A16_dist>
5.72286821550927

> <r_glide_res:A16_Eint>
-18.2417605218774

> <s_m_source_file>
ligprep_Nicaido_neutral.maegz

> <i_m_source_file_index>
15

> <i_lp_mmshare_version>
58128

> <i_f3d_flags>
0

> <s_lp_Force_Field>
S-OPLS

> <r_lp_Energy>
48.098991

> <b_lp_Chiralities_Consistent>
1

> <s_lp_Variant>
Cefaclor-1

> <s_epik_input>
UzFbQ0gyXUMoQ2wpPUMoQyg9TylbT0hdKU4oW0NAQEhdMTIpQyg9TylbQ0BIXTJbTkhdQyg9TylbQ0BASF0oW05IMl0pYzNbY0hdW2NIXVtjSF1bY0hdW2NIXTM=

> <s_epik_cmdline>
J2VwaWtfcHl0aG9uJywgJy1waHQnLCAnMC4wJywgJy1waCcsICc3LjQnLCAnLW50JywgJy1tYScsICc1MDAnLCAnLWltYWUnLCAnPGluZmlsZS5tYWU+JywgJy1vbWFlJywgJzxvdXRmaWxlLm1hZT4n

> <r_epik_Ionization_Penalty>
  0.1164

> <r_epik_Ionization_Penalty_Charging>
  0.0000

> <r_epik_Ionization_Penalty_Neutral>
  0.1164

> <r_epik_State_Penalty>
  0.1164

> <r_epik_Charging_Adjusted_Penalty>
0.116403072965043

> <i_epik_Tot_Q>
-1

> <i_epik_Tot_abs_Q>
1

> <s_epik_Chemistry_Notes>
This compound contains an acetal/aminal-like group ( X-CH(R)-Y where X, Y are N, S, or O) that may be acid/base labile, releasing an aldehyde.

> <s_m_subgroup_title>
glide-dock_Nicaido_neutral_pv1

> <s_m_subgroupid>
glide-dock_Nicaido_neutral_pv1

> <b_m_subgroup_collapsed>
0

$$$$
Nalidixic acid
                    3D
 Schrodinger Suite 2022-2.
 28 29  0  0  1  0            999 V2000
  -35.9212  -29.2735  -27.7602 C   0  0  0  0  0  0
  -36.1720  -27.8203  -27.3430 C   0  0  0  0  0  0
  -35.2917  -26.8894  -28.0466 N   0  0  0  0  0  0
  -34.1331  -26.4142  -27.4468 C   0  0  0  0  0  0
  -33.2490  -25.5577  -28.0029 C   0  0  0  0  0  0
  -33.5403  -25.0785  -29.3855 C   0  0  0  0  0  0
  -34.8138  -25.5423  -30.0107 C   0  0  0  0  0  0
  -35.6634  -26.4544  -29.3363 C   0  0  0  0  0  0
  -36.8143  -26.9183  -29.8890 N   0  0  0  0  0  0
  -37.1644  -26.4800  -31.1166 C   0  0  0  0  0  0
  -36.4003  -25.5495  -31.8453 C   0  0  0  0  0  0
  -35.2005  -25.0801  -31.2863 C   0  0  0  0  0  0
  -38.4291  -27.0715  -31.7016 C   0  0  0  0  0  0
  -32.7695  -24.3494  -30.0106 O   0  0  0  0  0  0
  -32.0100  -25.0648  -27.1687 C   0  0  0  0  0  0
  -31.5689  -23.9196  -27.4153 O   0  5  0  0  0  0
  -31.5688  -25.8437  -26.2945 O   0  0  0  0  0  0
  -36.5695  -29.9498  -27.2037 H   0  0  0  0  0  0
  -36.1081  -29.4229  -28.8227 H   0  0  0  0  0  0
  -34.8847  -29.5540  -27.5626 H   0  0  0  0  0  0
  -36.0086  -27.7272  -26.2681 H   0  0  0  0  0  0
  -37.2170  -27.5515  -27.4998 H   0  0  0  0  0  0
  -33.9792  -26.7919  -26.4450 H   0  0  0  0  0  0
  -36.7102  -25.2187  -32.8256 H   0  0  0  0  0  0
  -34.5915  -24.3811  -31.8412 H   0  0  0  0  0  0
  -38.7353  -26.5323  -32.5985 H   0  0  0  0  0  0
  -38.2700  -28.1150  -31.9734 H   0  0  0  0  0  0
  -39.2434  -27.0227  -30.9800 H   0  0  0  0  0  0
  1  2  1  0  0  0
  1 18  1  0  0  0
  1 19  1  0  0  0
  1 20  1  0  0  0
  2  3  1  0  0  0
  2 21  1  0  0  0
  2 22  1  0  0  0
  3  8  1  0  0  0
  3  4  1  0  0  0
  4  5  2  0  0  0
  4 23  1  0  0  0
  5  6  1  0  0  0
  5 15  1  0  0  0
  6  7  1  0  0  0
  6 14  2  0  0  0
  7 12  2  0  0  0
  7  8  1  0  0  0
  8  9  2  0  0  0
  9 10  1  0  0  0
 10 11  2  0  0  0
 10 13  1  0  0  0
 11 12  1  0  0  0
 11 24  1  0  0  0
 12 25  1  0  0  0
 13 26  1  0  0  0
 13 27  1  0  0  0
 13 28  1  0  0  0
 15 16  1  0  0  0
 15 17  2  0  0  0
M  CHG  1  16  -1
M  END
> <s_m_entry_id>
27772

> <s_m_entry_name>
data_maestro.31

> <s_m_Source_Path>
C:\Users\olshana1\Git\GramNeg-Accumulation\Gram Negative Permeation - OmpF

> <s_m_Source_File>
data_maestro.csv

> <i_m_Source_File_Index>
31

> <s_m_job_name>
glide-dock_Nicaido_neutral

> <s_i_glide_gridfile>
3POX-grid

> <i_i_glide_lignum>
40

> <i_i_glide_rotatable_bonds>
2

> <r_i_docking_score>
-3.31584922106185

> <r_i_glide_ligand_efficiency>
-0.195049954180109

> <r_i_glide_ligand_efficiency_sa>
-0.501528355968401

> <r_i_glide_ligand_efficiency_ln>
-0.865031221443339

> <r_i_glide_gscore>
-3.31584922106185

> <r_i_glide_lipo>
-0.198179043426678

> <r_i_glide_hbond>
-1.78394521686251e-05

> <r_i_glide_metal>
0

> <r_i_glide_rewards>
-1.98690303576349

> <r_i_glide_evdw>
-19.744291305542

> <r_i_glide_ecoul>
-0.49742004275322

> <r_i_glide_erotb>
0

> <r_i_glide_esite>
-0.0689217307294358

> <r_i_glide_emodel>
-29.8857695322905

> <r_i_glide_energy>
-20.2417113482952

> <r_i_glide_einternal>
0.874929487705231

> <i_i_glide_confnum>
1

> <i_i_glide_posenum>
370

> <r_i_glide_eff_state_penalty>
0

> <r_glide_res:A132_vdw>
-0.0899073209783137

> <r_glide_res:A132_coul>
-20.7057241188812

> <r_glide_res:A132_hbond>
0

> <r_glide_res:A132_dist>
6.19700348368015

> <r_glide_res:A132_Eint>
-20.7956314398595

> <r_glide_res:A117_vdw>
-0.0238976674196032

> <r_glide_res:A117_coul>
17.6174830278392

> <r_glide_res:A117_hbond>
0

> <r_glide_res:A117_dist>
9.12804141991959

> <r_glide_res:A117_Eint>
17.5935853604196

> <r_glide_res:A113_vdw>
-0.0281713616899348

> <r_glide_res:A113_coul>
18.0865413932491

> <r_glide_res:A113_hbond>
0

> <r_glide_res:A113_dist>
9.01483162816075

> <r_glide_res:A113_Eint>
18.0583700315591

> <r_glide_res:A82_vdw>
-0.852130637056982

> <r_glide_res:A82_coul>
-36.1783190438425

> <r_glide_res:A82_hbond>
0

> <r_glide_res:A82_dist>
2.51794561285124

> <r_glide_res:A82_Eint>
-37.0304496808995

> <r_glide_res:A42_vdw>
-1.37373355389722

> <r_glide_res:A42_coul>
-40.9450797765747

> <r_glide_res:A42_hbond>
-1.78394521686251e-05

> <r_glide_res:A42_dist>
2.49967948617015

> <r_glide_res:A42_Eint>
-42.3188311699241

> <r_glide_res:A16_vdw>
-2.32535407655087

> <r_glide_res:A16_coul>
-42.9814755399471

> <r_glide_res:A16_hbond>
0

> <r_glide_res:A16_dist>
2.50283212044439

> <r_glide_res:A16_Eint>
-45.306829616498

> <s_m_source_file>
ligprep_Nicaido_neutral.maegz

> <i_m_source_file_index>
31

> <i_lp_mmshare_version>
58128

> <i_f3d_flags>
0

> <s_lp_Force_Field>
S-OPLS

> <r_lp_Energy>
25.048869

> <b_lp_Chiralities_Consistent>
1

> <s_lp_Variant>
Nalidixic acid-1

> <s_epik_input>
Tz1jMWMoQyg9TylbT0hdKVtjSF1uKFtDSDJdW0NIM10pYyhjMTIpbmMoW0NIM10pW2NIXVtjSF0y

> <s_epik_cmdline>
J2VwaWtfcHl0aG9uJywgJy1waHQnLCAnMC4wJywgJy1waCcsICc3LjQnLCAnLW50JywgJy1tYScsICc1MDAnLCAnLWltYWUnLCAnPGluZmlsZS5tYWU+JywgJy1vbWFlJywgJzxvdXRmaWxlLm1hZT4n

> <r_lp_tautomer_probability>
1

> <r_epik_Ionization_Penalty>
  0.0215

> <r_epik_Ionization_Penalty_Charging>
  0.0215

> <r_epik_Ionization_Penalty_Neutral>
  0.0000

> <r_epik_State_Penalty>
  0.0000

> <r_epik_Charging_Adjusted_Penalty>
0.0214516940307923

> <i_epik_Tot_Q>
-1

> <i_epik_Tot_abs_Q>
1

> <s_m_subgroup_title>
glide-dock_Nicaido_neutral_pv1

> <s_m_subgroupid>
glide-dock_Nicaido_neutral_pv1

> <b_m_subgroup_collapsed>
0

$$$$
BL-S217
                    3D
 Schrodinger Suite 2022-2.
 48 50  0  0  1  0            999 V2000
  -30.1983  -23.5488  -23.8289 O   0  0  0  0  0  0
  -30.5032  -22.4930  -23.3091 C   0  0  0  0  0  0
  -31.0704  -22.0059  -21.9571 C   0  0  2  0  0  0
  -30.6209  -20.5999  -22.4065 C   0  0  1  0  0  0
  -30.3791  -21.1757  -23.7093 N   0  0  0  0  0  0
  -29.7987  -20.4240  -24.7370 C   0  0  0  0  0  0
  -28.9821  -21.2981  -25.7280 C   0  0  0  0  0  0
  -29.5588  -21.5497  -26.8133 O   0  5  0  0  0  0
  -27.9669  -21.8638  -25.2484 O   0  0  0  0  0  0
  -29.9027  -19.0678  -24.8009 C   0  0  0  0  0  0
  -30.6758  -18.2397  -23.7693 C   0  0  0  0  0  0
  -31.7515  -19.2021  -22.6602 S   0  0  0  0  0  0
  -29.1830  -18.2063  -25.8387 C   0  0  0  0  0  0
  -29.4505  -18.6049  -27.1819 O   0  0  0  0  0  0
  -30.2614  -17.9515  -28.0413 C   0  0  0  0  0  0
  -31.0197  -16.7500  -27.5034 C   0  0  0  0  0  0
  -30.4299  -18.3396  -29.1990 O   0  0  0  0  0  0
  -30.2839  -22.4405  -20.8134 N   0  0  0  0  0  0
  -29.9958  -23.7008  -20.4532 C   0  0  0  0  0  0
  -29.1377  -23.9029  -19.2018 C   0  0  0  0  0  0
  -27.3585  -23.9482  -19.5606 S   0  0  0  0  0  0
  -26.7199  -22.3680  -19.1163 C   0  0  0  0  0  0
  -26.8885  -21.2597  -19.9707 C   0  0  0  0  0  0
  -26.3059  -20.0264  -19.6091 C   0  0  0  0  0  0
  -25.5909  -19.9117  -18.4578 N   0  3  0  0  0  0
  -24.9814  -18.6222  -18.0978 C   0  0  0  0  0  0
  -25.4292  -20.9631  -17.6135 C   0  0  0  0  0  0
  -25.9910  -22.2193  -17.9196 C   0  0  0  0  0  0
  -30.3684  -24.6825  -21.0903 O   0  0  0  0  0  0
  -32.1495  -22.0978  -21.8325 H   0  0  0  0  0  0
  -29.6850  -20.2671  -21.9496 H   0  0  0  0  0  0
  -29.9515  -17.6948  -23.1610 H   0  0  0  0  0  0
  -31.2915  -17.4940  -24.2722 H   0  0  0  0  0  0
  -29.4087  -17.1543  -25.6680 H   0  0  0  0  0  0
  -28.1112  -18.3023  -25.6625 H   0  0  0  0  0  0
  -31.6707  -16.3312  -28.2696 H   0  0  0  0  0  0
  -31.6243  -17.0166  -26.6386 H   0  0  0  0  0  0
  -30.2925  -15.9972  -27.2152 H   0  0  0  0  0  0
  -30.0659  -21.7180  -20.1344 H   0  0  0  0  0  0
  -29.4184  -24.8536  -18.7471 H   0  0  0  0  0  0
  -29.3300  -23.1487  -18.4468 H   0  0  0  0  0  0
  -27.4475  -21.3507  -20.8933 H   0  0  0  0  0  0
  -26.4003  -19.1365  -20.2153 H   0  0  0  0  0  0
  -25.4234  -17.8221  -18.6915 H   0  0  0  0  0  0
  -25.1689  -18.4256  -17.0407 H   0  0  0  0  0  0
  -23.9088  -18.6801  -18.2840 H   0  0  0  0  0  0
  -24.8668  -20.7786  -16.7105 H   0  0  0  0  0  0
  -25.8646  -23.0510  -17.2388 H   0  0  0  0  0  0
  1  2  2  0  0  0
  2  5  1  0  0  0
  2  3  1  0  0  0
  3  4  1  0  0  0
  3 18  1  0  0  0
  3 30  1  0  0  0
  4 12  1  0  0  0
  4  5  1  0  0  0
  4 31  1  0  0  0
  5  6  1  0  0  0
  6  7  1  0  0  0
  6 10  2  0  0  0
  7  8  1  0  0  0
  7  9  2  0  0  0
 10 11  1  0  0  0
 10 13  1  0  0  0
 11 12  1  0  0  0
 11 32  1  0  0  0
 11 33  1  0  0  0
 13 14  1  0  0  0
 13 34  1  0  0  0
 13 35  1  0  0  0
 14 15  1  0  0  0
 15 16  1  0  0  0
 15 17  2  0  0  0
 16 36  1  0  0  0
 16 37  1  0  0  0
 16 38  1  0  0  0
 18 19  1  0  0  0
 18 39  1  0  0  0
 19 20  1  0  0  0
 19 29  2  0  0  0
 20 21  1  0  0  0
 20 40  1  0  0  0
 20 41  1  0  0  0
 21 22  1  0  0  0
 22 28  1  0  0  0
 22 23  2  0  0  0
 23 24  1  0  0  0
 23 42  1  0  0  0
 24 25  2  0  0  0
 24 43  1  0  0  0
 25 26  1  0  0  0
 25 27  1  0  0  0
 26 44  1  0  0  0
 26 45  1  0  0  0
 26 46  1  0  0  0
 27 28  2  0  0  0
 27 47  1  0  0  0
 28 48  1  0  0  0
M  CHG  2   8  -1  25   1
M  END
> <s_m_entry_id>
27773

> <s_m_entry_name>
data_maestro.17

> <s_m_Source_Path>
C:\Users\olshana1\Git\GramNeg-Accumulation\Gram Negative Permeation - OmpF

> <s_m_Source_File>
data_maestro.csv

> <i_m_Source_File_Index>
17

> <s_m_job_name>
glide-dock_Nicaido_neutral

> <s_i_glide_gridfile>
3POX-grid

> <i_i_glide_lignum>
22

> <i_i_glide_rotatable_bonds>
9

> <r_i_docking_score>
-3.28260848743848

> <r_i_glide_ligand_efficiency>
-0.113193396118568

> <r_i_glide_ligand_efficiency_sa>
-0.347765975061257

> <r_i_glide_ligand_efficiency_ln>
-0.751634103854294

> <r_i_glide_gscore>
-3.28260848743848

> <r_i_glide_lipo>
0

> <r_i_glide_hbond>
-0.672574158986352

> <r_i_glide_metal>
0

> <r_i_glide_rewards>
2.15098075213986

> <r_i_glide_evdw>
-25.8332023620605

> <r_i_glide_ecoul>
-24.1877479553223

> <r_i_glide_erotb>
0.729326637690335

> <r_i_glide_esite>
-0.570519406880953

> <r_i_glide_emodel>
-57.4335775354588

> <r_i_glide_energy>
-50.0209503173828

> <r_i_glide_einternal>
11.0653457641602

> <i_i_glide_confnum>
139

> <i_i_glide_posenum>
284

> <r_i_glide_eff_state_penalty>
0

> <r_glide_res:A132_vdw>
0.13148976326059

> <r_glide_res:A132_coul>
-9.14435713108443

> <r_glide_res:A132_hbond>
-0.00412443260263823

> <r_glide_res:A132_dist>
2.16843606401572

> <r_glide_res:A132_Eint>
-9.01699180042648

> <r_glide_res:A117_vdw>
-4.24521074811664

> <r_glide_res:A117_coul>
-1.11393047176953

> <r_glide_res:A117_hbond>
0

> <r_glide_res:A117_dist>
1.99621867921184

> <r_glide_res:A117_Eint>
-5.35914121988617

> <r_glide_res:A113_vdw>
-2.68315486296641

> <r_glide_res:A113_coul>
-21.2187770456268

> <r_glide_res:A113_hbond>
-0.0172468566460855

> <r_glide_res:A113_dist>
2.2548991816226

> <r_glide_res:A113_Eint>
-23.9191787652393

> <r_glide_res:A82_vdw>
-1.61209201962313

> <r_glide_res:A82_coul>
-22.8951482309369

> <r_glide_res:A82_hbond>
-0.0563741990557909

> <r_glide_res:A82_dist>
2.25857719798507

> <r_glide_res:A82_Eint>
-24.5636144496158

> <r_glide_res:A42_vdw>
-0.432920244199069

> <r_glide_res:A42_coul>
-38.5410425099067

> <r_glide_res:A42_hbond>
-0.257573927953365

> <r_glide_res:A42_dist>
1.83879601237773

> <r_glide_res:A42_Eint>
-39.2315366820591

> <r_glide_res:A16_vdw>
5.58888360584216

> <r_glide_res:A16_coul>
-48.3509024347659

> <r_glide_res:A16_hbond>
-0.333960501917453

> <r_glide_res:A16_dist>
1.54792100383491

> <r_glide_res:A16_Eint>
-43.0959793308412

> <s_m_source_file>
ligprep_Nicaido_neutral.maegz

> <i_m_source_file_index>
17

> <i_lp_mmshare_version>
58128

> <i_f3d_flags>
0

> <s_lp_Force_Field>
S-OPLS

> <r_lp_Energy>
45.233938

> <b_lp_Chiralities_Consistent>
1

> <s_lp_Variant>
BL-S217-1

> <s_epik_input>
W0NIM11DKD1PKU9bQ0gyXUMoW0NIMl1TMSk9QyhDKD1PKVtPSF0pTihbQ0BASF0xMilDKD1PKVtDQEhdMltOSF1DKD1PKVtDSDJdU2MzW2NIXVtjSF1bbitdKFtDSDNdKVtjSF1bY0hdMw==

> <s_epik_cmdline>
J2VwaWtfcHl0aG9uJywgJy1waHQnLCAnMC4wJywgJy1waCcsICc3LjQnLCAnLW50JywgJy1tYScsICc1MDAnLCAnLWltYWUnLCAnPGluZmlsZS5tYWU+JywgJy1vbWFlJywgJzxvdXRmaWxlLm1hZT4n

> <r_lp_tautomer_probability>
1

> <r_epik_Ionization_Penalty>
  0.0000

> <r_epik_Ionization_Penalty_Charging>
  0.0000

> <r_epik_Ionization_Penalty_Neutral>
  0.0000

> <r_epik_State_Penalty>
  0.0000

> <r_epik_Charging_Adjusted_Penalty>
6.14912740637116e-06

> <i_epik_Tot_Q>
0

> <i_epik_Tot_abs_Q>
2

> <s_epik_Chemistry_Notes>
This compound has an ester and may undergo hydrolysis at high or low pH. This compound contains an acetal/aminal-like group ( X-CH(R)-Y where X, Y are N, S, or O) that may be acid/base labile, releasing an aldehyde.

> <s_m_subgroup_title>
glide-dock_Nicaido_neutral_pv1

> <s_m_subgroupid>
glide-dock_Nicaido_neutral_pv1

> <b_m_subgroup_collapsed>
0

$$$$
Cefuroxime
                    3D
 Schrodinger Suite 2022-2.
 44 46  0  0  1  0            999 V2000
  -21.4615  -25.1245  -18.0499 C   0  0  0  0  0  0
  -22.5863  -24.8912  -17.2178 O   0  0  0  0  0  0
  -23.7231  -24.7613  -18.0344 N   0  0  0  0  0  0
  -24.2339  -23.5871  -18.0523 C   0  0  0  0  0  0
  -23.7242  -22.4096  -17.3320 C   0  0  0  0  0  0
  -23.5687  -21.0850  -17.6555 C   0  0  0  0  0  0
  -22.9531  -20.4551  -16.5412 C   0  0  0  0  0  0
  -22.7755  -21.4381  -15.6132 C   0  0  0  0  0  0
  -23.2530  -22.6268  -16.0684 O   0  0  0  0  0  0
  -25.4318  -23.3249  -18.9452 C   0  0  0  0  0  0
  -26.2848  -22.3780  -18.4893 N   0  0  0  0  0  0
  -27.5045  -21.8407  -19.1245 C   0  0  1  0  0  0
  -27.2273  -21.0744  -20.4335 C   0  0  1  0  0  0
  -28.2845  -21.8714  -21.0323 N   0  0  0  0  0  0
  -28.3026  -22.8173  -20.0209 C   0  0  0  0  0  0
  -28.7271  -23.9496  -19.9455 O   0  0  0  0  0  0
  -28.6307  -21.6769  -22.3820 C   0  0  0  0  0  0
  -28.5699  -22.9347  -23.3508 C   0  0  0  0  0  0
  -28.6242  -22.7504  -24.5912 O   0  5  0  0  0  0
  -28.3689  -24.0469  -22.8134 O   0  0  0  0  0  0
  -29.0568  -20.4302  -22.7127 C   0  0  0  0  0  0
  -29.0837  -19.3170  -21.6663 C   0  0  0  0  0  0
  -27.5976  -19.2925  -20.6085 S   0  0  0  0  0  0
  -29.7762  -20.0697  -24.0045 C   0  0  0  0  0  0
  -29.0182  -19.2268  -24.8599 O   0  0  0  0  0  0
  -29.5691  -18.8686  -26.0288 C   0  0  0  0  0  0
  -28.7689  -17.9495  -26.6623 N   0  0  0  0  0  0
  -30.6317  -19.3011  -26.4750 O   0  0  0  0  0  0
  -25.5710  -23.9497  -20.0011 O   0  0  0  0  0  0
  -20.5731  -25.2499  -17.4318 H   0  0  0  0  0  0
  -21.5779  -26.0223  -18.6573 H   0  0  0  0  0  0
  -21.2845  -24.2779  -18.7155 H   0  0  0  0  0  0
  -23.8531  -20.6231  -18.5899 H   0  0  0  0  0  0
  -22.6797  -19.4155  -16.4301 H   0  0  0  0  0  0
  -22.3710  -21.4570  -14.6112 H   0  0  0  0  0  0
  -26.0706  -21.9694  -17.5895 H   0  0  0  0  0  0
  -28.1264  -21.2638  -18.4370 H   0  0  0  0  0  0
  -26.2651  -21.3114  -20.8933 H   0  0  0  0  0  0
  -29.1685  -18.3424  -22.1474 H   0  0  0  0  0  0
  -29.9684  -19.4416  -21.0403 H   0  0  0  0  0  0
  -30.0940  -20.9587  -24.5441 H   0  0  0  0  0  0
  -30.6988  -19.5550  -23.7319 H   0  0  0  0  0  0
  -27.9165  -17.6117  -26.2101 H   0  0  0  0  0  0
  -29.1219  -17.5036  -27.4951 H   0  0  0  0  0  0
  1  2  1  0  0  0
  1 30  1  0  0  0
  1 31  1  0  0  0
  1 32  1  0  0  0
  2  3  1  0  0  0
  3  4  2  3  0  0
  4  5  1  0  0  0
  4 10  1  0  0  0
  5  9  1  0  0  0
  5  6  2  0  0  0
  6  7  1  0  0  0
  6 33  1  0  0  0
  7  8  2  0  0  0
  7 34  1  0  0  0
  8  9  1  0  0  0
  8 35  1  0  0  0
 10 11  1  0  0  0
 10 29  2  0  0  0
 11 12  1  0  0  0
 11 36  1  0  0  0
 12 15  1  0  0  0
 12 13  1  0  0  0
 12 37  1  0  0  0
 13 23  1  0  0  0
 13 14  1  0  0  0
 13 38  1  0  0  0
 14 15  1  0  0  0
 14 17  1  0  0  0
 15 16  2  0  0  0
 17 18  1  0  0  0
 17 21  2  0  0  0
 18 19  1  0  0  0
 18 20  2  0  0  0
 21 22  1  0  0  0
 21 24  1  0  0  0
 22 23  1  0  0  0
 22 39  1  0  0  0
 22 40  1  0  0  0
 24 25  1  0  0  0
 24 41  1  0  0  0
 24 42  1  0  0  0
 25 26  1  0  0  0
 26 27  1  0  0  0
 26 28  2  0  0  0
 27 43  1  0  0  0
 27 44  1  0  0  0
M  CHG  1  19  -1
M  END
> <s_m_entry_id>
27774

> <s_m_entry_name>
data_maestro.10

> <s_m_Source_Path>
C:\Users\olshana1\Git\GramNeg-Accumulation\Gram Negative Permeation - OmpF

> <s_m_Source_File>
data_maestro.csv

> <i_m_Source_File_Index>
10

> <s_m_job_name>
glide-dock_Nicaido_neutral

> <s_i_glide_gridfile>
3POX-grid

> <i_i_glide_lignum>
13

> <i_i_glide_rotatable_bonds>
9

> <r_i_docking_score>
-3.22323100113808

> <r_i_glide_ligand_efficiency>
-0.111145896590968

> <r_i_glide_ligand_efficiency_sa>
-0.341475407819088

> <r_i_glide_ligand_efficiency_ln>
-0.738038165174641

> <r_i_glide_gscore>
-3.22323100113808

> <r_i_glide_lipo>
-0.000162056978501962

> <r_i_glide_hbond>
-0.963493944929179

> <r_i_glide_metal>
0

> <r_i_glide_rewards>
1.9847097434277

> <r_i_glide_evdw>
-32.3347969055176

> <r_i_glide_ecoul>
-16.9297561645508

> <r_i_glide_erotb>
0.663396273735242

> <r_i_glide_esite>
-0.75147774643485

> <r_i_glide_emodel>
-55.3823965580707

> <r_i_glide_energy>
-49.2645530700684

> <r_i_glide_einternal>
8.78746891021729

> <i_i_glide_confnum>
117

> <i_i_glide_posenum>
193

> <r_i_glide_eff_state_penalty>
0

> <r_glide_res:A132_vdw>
-1.81506071621201

> <r_glide_res:A132_coul>
-46.9131804086039

> <r_glide_res:A132_hbond>
-0.32

> <r_glide_res:A132_dist>
1.89975260241941

> <r_glide_res:A132_Eint>
-49.0482411248159

> <r_glide_res:A117_vdw>
-2.44617596874811

> <r_glide_res:A117_coul>
15.3765942625743

> <r_glide_res:A117_hbond>
-0.130976433191734

> <r_glide_res:A117_dist>
1.93638805380947

> <r_glide_res:A117_Eint>
12.7994418606345

> <r_glide_res:A113_vdw>
-3.53216431763361

> <r_glide_res:A113_coul>
22.5449036519243

> <r_glide_res:A113_hbond>
0

> <r_glide_res:A113_dist>
2.59130122737684

> <r_glide_res:A113_Eint>
19.0127393342907

> <r_glide_res:A82_vdw>
0.179104350496141

> <r_glide_res:A82_coul>
-52.264470674514

> <r_glide_res:A82_hbond>
-0.333540927390774

> <r_glide_res:A82_dist>
1.88584639971279

> <r_glide_res:A82_Eint>
-52.4189072514086

> <r_glide_res:A42_vdw>
-1.32519466878772

> <r_glide_res:A42_coul>
-44.036692202844

> <r_glide_res:A42_hbond>
-0.17897658434667

> <r_glide_res:A42_dist>
2.22516138382317

> <r_glide_res:A42_Eint>
-45.5408634559784

> <r_glide_res:A16_vdw>
-0.725778434298357

> <r_glide_res:A16_coul>
-32.9363648193246

> <r_glide_res:A16_hbond>
0

> <r_glide_res:A16_dist>
2.50560673212813

> <r_glide_res:A16_Eint>
-33.6621432536229

> <s_m_source_file>
ligprep_Nicaido_neutral.maegz

> <i_m_source_file_index>
10

> <i_lp_mmshare_version>
58128

> <i_f3d_flags>
0

> <s_lp_Force_Field>
S-OPLS

> <r_lp_Energy>
41.721283

> <b_lp_Chiralities_Consistent>
1

> <s_lp_Variant>
Cefuroxime-1

> <s_epik_input>
bzFbY0hdW2NIXVtjSF1jMS9DKD1OXE9bQ0gzXSlDKD1PKVtOSF1bQ0BASF0yQyg9TylOKFtDQEhdMjMpQyhDKD1PKVtPSF0pPUMoW0NIMl1TMylbQ0gyXU9DKD1PKVtOSDJd

> <s_epik_cmdline>
J2VwaWtfcHl0aG9uJywgJy1waHQnLCAnMC4wJywgJy1waCcsICc3LjQnLCAnLW50JywgJy1tYScsICc1MDAnLCAnLWltYWUnLCAnPGluZmlsZS5tYWU+JywgJy1vbWFlJywgJzxvdXRmaWxlLm1hZT4n

> <r_lp_tautomer_probability>
1

> <r_epik_Ionization_Penalty>
  0.0000

> <r_epik_Ionization_Penalty_Charging>
  0.0000

> <r_epik_Ionization_Penalty_Neutral>
  0.0000

> <r_epik_State_Penalty>
  0.0000

> <r_epik_Charging_Adjusted_Penalty>
8.57368987839538e-06

> <i_epik_Tot_Q>
-1

> <i_epik_Tot_abs_Q>
1

> <s_epik_Chemistry_Notes>
This compound has an ester and may undergo hydrolysis at high or low pH. This compound has an imine and may undergo hydrolysis. This compound contains an acetal/aminal-like group ( X-CH(R)-Y where X, Y are N, S, or O) that may be acid/base labile, releasing an aldehyde.

> <s_m_subgroup_title>
glide-dock_Nicaido_neutral_pv1

> <s_m_subgroupid>
glide-dock_Nicaido_neutral_pv1

> <b_m_subgroup_collapsed>
0

$$$$
Nalidixic acid
                    3D
 Schrodinger Suite 2022-2.
 28 29  0  0  1  0            999 V2000
  -23.8482  -20.7113  -19.3958 C   0  0  0  0  0  0
  -23.4932  -21.8432  -20.3688 C   0  0  0  0  0  0
  -24.1458  -21.6821  -21.6705 N   0  0  0  0  0  0
  -25.3308  -22.3411  -21.9668 C   0  0  0  0  0  0
  -26.0312  -22.2390  -23.1236 C   0  0  0  0  0  0
  -25.4897  -21.3119  -24.1670 C   0  0  0  0  0  0
  -24.1992  -20.6261  -23.8601 C   0  0  0  0  0  0
  -23.5515  -20.8199  -22.6163 C   0  0  0  0  0  0
  -22.3756  -20.2225  -22.3084 N   0  0  0  0  0  0
  -21.8124  -19.3957  -23.2108 C   0  0  0  0  0  0
  -22.3703  -19.1500  -24.4783 C   0  0  0  0  0  0
  -23.5925  -19.7665  -24.8023 C   0  0  0  0  0  0
  -20.5391  -18.7109  -22.7639 C   0  0  0  0  0  0
  -26.0490  -21.1425  -25.2533 O   0  0  0  0  0  0
  -27.3396  -23.1027  -23.3172 C   0  0  0  0  0  0
  -27.5701  -23.9506  -22.4193 O   0  5  0  0  0  0
  -27.9471  -23.0320  -24.4128 O   0  0  0  0  0  0
  -23.3901  -20.8794  -18.4218 H   0  0  0  0  0  0
  -23.5038  -19.7428  -19.7610 H   0  0  0  0  0  0
  -24.9280  -20.6480  -19.2491 H   0  0  0  0  0  0
  -23.8033  -22.7936  -19.9316 H   0  0  0  0  0  0
  -22.4122  -21.9205  -20.4818 H   0  0  0  0  0  0
  -25.6706  -22.9788  -21.1665 H   0  0  0  0  0  0
  -21.9001  -18.4707  -25.1735 H   0  0  0  0  0  0
  -24.0546  -19.5674  -25.7586 H   0  0  0  0  0  0
  -19.9595  -18.3569  -23.6136 H   0  0  0  0  0  0
  -20.7809  -17.8517  -22.1382 H   0  0  0  0  0  0
  -19.9154  -19.3933  -22.1867 H   0  0  0  0  0  0
  1  2  1  0  0  0
  1 18  1  0  0  0
  1 19  1  0  0  0
  1 20  1  0  0  0
  2  3  1  0  0  0
  2 21  1  0  0  0
  2 22  1  0  0  0
  3  8  1  0  0  0
  3  4  1  0  0  0
  4  5  2  0  0  0
  4 23  1  0  0  0
  5  6  1  0  0  0
  5 15  1  0  0  0
  6  7  1  0  0  0
  6 14  2  0  0  0
  7 12  2  0  0  0
  7  8  1  0  0  0
  8  9  2  0  0  0
  9 10  1  0  0  0
 10 11  2  0  0  0
 10 13  1  0  0  0
 11 12  1  0  0  0
 11 24  1  0  0  0
 12 25  1  0  0  0
 13 26  1  0  0  0
 13 27  1  0  0  0
 13 28  1  0  0  0
 15 16  1  0  0  0
 15 17  2  0  0  0
M  CHG  1  16  -1
M  END
> <s_m_entry_id>
27775

> <s_m_entry_name>
data_maestro.31

> <s_m_Source_Path>
C:\Users\olshana1\Git\GramNeg-Accumulation\Gram Negative Permeation - OmpF

> <s_m_Source_File>
data_maestro.csv

> <i_m_Source_File_Index>
31

> <s_m_job_name>
glide-dock_Nicaido_neutral

> <s_i_glide_gridfile>
3POX-grid

> <i_i_glide_lignum>
40

> <i_i_glide_rotatable_bonds>
2

> <r_i_docking_score>
-3.21036703923316

> <r_i_glide_ligand_efficiency>
-0.188845119954892

> <r_i_glide_ligand_efficiency_sa>
-0.485573979967081

> <r_i_glide_ligand_efficiency_ln>
-0.837513269176932

> <r_i_glide_gscore>
-3.21036703923316

> <r_i_glide_lipo>
0

> <r_i_glide_hbond>
-0.44154500729201

> <r_i_glide_metal>
0

> <r_i_glide_rewards>
-1.83254086363636

> <r_i_glide_evdw>
-10.5805168151855

> <r_i_glide_ecoul>
-1.71150207519531

> <r_i_glide_erotb>
0

> <r_i_glide_esite>
-0.150530016266212

> <r_i_glide_emodel>
-21.9783310275244

> <r_i_glide_energy>
-12.2920188903809

> <r_i_glide_einternal>
0.149004578590393

> <i_i_glide_confnum>
1

> <i_i_glide_posenum>
339

> <r_i_glide_eff_state_penalty>
0

> <r_glide_res:A132_vdw>
-1.23826409741358

> <r_glide_res:A132_coul>
-35.3624924358823

> <r_glide_res:A132_hbond>
0

> <r_glide_res:A132_dist>
2.6798754531732

> <r_glide_res:A132_Eint>
-36.6007565332959

> <r_glide_res:A117_vdw>
-1.93502807275414

> <r_glide_res:A117_coul>
24.5817633951881

> <r_glide_res:A117_hbond>
0

> <r_glide_res:A117_dist>
2.83694162584899

> <r_glide_res:A117_Eint>
22.646735322434

> <r_glide_res:A113_vdw>
-0.204875375327615

> <r_glide_res:A113_coul>
25.1017376959055

> <r_glide_res:A113_hbond>
0

> <r_glide_res:A113_dist>
5.96475778636038

> <r_glide_res:A113_Eint>
24.8968623205779

> <r_glide_res:A82_vdw>
0.689470370386315

> <r_glide_res:A82_coul>
-46.3089381856227

> <r_glide_res:A82_hbond>
-0.204518886469545

> <r_glide_res:A82_dist>
1.83487554565207

> <r_glide_res:A82_Eint>
-45.8239867017059

> <r_glide_res:A42_vdw>
-0.731888186204784

> <r_glide_res:A42_coul>
-46.1738205338936

> <r_glide_res:A42_hbond>
-0.237026120822465

> <r_glide_res:A42_dist>
2.05824318617594

> <r_glide_res:A42_Eint>
-47.1427348409208

> <r_glide_res:A16_vdw>
-0.16302309348377

> <r_glide_res:A16_coul>
-26.8498349370033

> <r_glide_res:A16_hbond>
0

> <r_glide_res:A16_dist>
4.76898378379825

> <r_glide_res:A16_Eint>
-27.012858030487

> <s_m_source_file>
ligprep_Nicaido_neutral.maegz

> <i_m_source_file_index>
31

> <i_lp_mmshare_version>
58128

> <i_f3d_flags>
0

> <s_lp_Force_Field>
S-OPLS

> <r_lp_Energy>
25.048869

> <b_lp_Chiralities_Consistent>
1

> <s_lp_Variant>
Nalidixic acid-1

> <s_epik_input>
Tz1jMWMoQyg9TylbT0hdKVtjSF1uKFtDSDJdW0NIM10pYyhjMTIpbmMoW0NIM10pW2NIXVtjSF0y

> <s_epik_cmdline>
J2VwaWtfcHl0aG9uJywgJy1waHQnLCAnMC4wJywgJy1waCcsICc3LjQnLCAnLW50JywgJy1tYScsICc1MDAnLCAnLWltYWUnLCAnPGluZmlsZS5tYWU+JywgJy1vbWFlJywgJzxvdXRmaWxlLm1hZT4n

> <r_lp_tautomer_probability>
1

> <r_epik_Ionization_Penalty>
  0.0215

> <r_epik_Ionization_Penalty_Charging>
  0.0215

> <r_epik_Ionization_Penalty_Neutral>
  0.0000

> <r_epik_State_Penalty>
  0.0000

> <r_epik_Charging_Adjusted_Penalty>
0.0214516940307923

> <i_epik_Tot_Q>
-1

> <i_epik_Tot_abs_Q>
1

> <s_m_subgroup_title>
glide-dock_Nicaido_neutral_pv1

> <s_m_subgroupid>
glide-dock_Nicaido_neutral_pv1

> <b_m_subgroup_collapsed>
0

$$$$
Piperacillin
                    3D
 Schrodinger Suite 2022-2.
 62 65  0  0  1  0            999 V2000
  -29.4498  -18.3093  -26.2473 C   0  0  0  0  0  0
  -30.4028  -19.1499  -25.3855 C   0  0  0  0  0  0
  -29.6583  -19.9691  -24.4209 N   0  0  0  0  0  0
  -29.5122  -19.3883  -23.0882 C   0  0  0  0  0  0
  -28.1547  -19.7617  -22.4848 C   0  0  0  0  0  0
  -27.8970  -21.2219  -22.5428 N   0  0  0  0  0  0
  -28.3508  -21.9458  -23.6137 C   0  0  0  0  0  0
  -29.1601  -21.1904  -24.7270 C   0  0  0  0  0  0
  -29.3136  -21.7365  -25.8264 O   0  0  0  0  0  0
  -28.1230  -23.1494  -23.8095 O   0  0  0  0  0  0
  -27.2843  -21.8167  -21.4793 C   0  0  0  0  0  0
  -26.3398  -21.0448  -20.9166 N   0  0  0  0  0  0
  -25.6167  -21.3152  -19.6702 C   0  0  2  0  0  0
  -24.9761  -20.0261  -19.2396 C   0  0  0  0  0  0
  -24.3440  -19.1497  -20.1621 C   0  0  0  0  0  0
  -23.7379  -17.9502  -19.7480 C   0  0  0  0  0  0
  -23.7566  -17.5845  -18.3920 C   0  0  0  0  0  0
  -24.3692  -18.4346  -17.4552 C   0  0  0  0  0  0
  -24.9643  -19.6412  -17.8775 C   0  0  0  0  0  0
  -24.4035  -22.2450  -19.8749 C   0  0  0  0  0  0
  -23.9377  -22.3514  -21.1229 N   0  0  0  0  0  0
  -22.7528  -23.0883  -21.5164 C   0  0  1  0  0  0
  -22.7645  -23.3902  -23.0201 C   0  0  2  0  0  0
  -21.6295  -22.5013  -23.1543 N   0  0  0  0  0  0
  -21.5616  -22.1700  -21.8249 C   0  0  0  0  0  0
  -20.8558  -21.4005  -21.2133 O   0  0  0  0  0  0
  -21.2849  -21.8308  -24.3857 C   0  0  2  0  0  0
  -22.6906  -21.4612  -24.9863 C   0  0  0  0  0  0
  -23.0955  -20.0523  -24.5084 C   0  0  0  0  0  0
  -23.8868  -22.6677  -24.2721 S   0  0  0  0  0  0
  -22.7623  -21.4976  -26.5303 C   0  0  0  0  0  0
  -20.4119  -22.7907  -25.2125 C   0  0  0  0  0  0
  -20.8496  -23.9494  -25.3977 O   0  5  0  0  0  0
  -19.3074  -22.3685  -25.6131 O   0  0  0  0  0  0
  -23.9277  -22.8717  -18.9298 O   0  0  0  0  0  0
  -27.4656  -22.9836  -21.1143 O   0  0  0  0  0  0
  -30.0026  -17.6864  -26.9537 H   0  0  0  0  0  0
  -28.8398  -17.6436  -25.6349 H   0  0  0  0  0  0
  -28.7690  -18.9422  -26.8133 H   0  0  0  0  0  0
  -31.0282  -19.7770  -26.0207 H   0  0  0  0  0  0
  -31.0933  -18.4882  -24.8611 H   0  0  0  0  0  0
  -29.5987  -18.3011  -23.1186 H   0  0  0  0  0  0
  -30.3202  -19.7513  -22.4517 H   0  0  0  0  0  0
  -28.1521  -19.3715  -21.4650 H   0  0  0  0  0  0
  -27.3576  -19.2391  -23.0182 H   0  0  0  0  0  0
  -26.2390  -20.1079  -21.2791 H   0  0  0  0  0  0
  -26.2871  -21.7119  -18.9060 H   0  0  0  0  0  0
  -24.3070  -19.3949  -21.2149 H   0  0  0  0  0  0
  -23.2587  -17.3113  -20.4780 H   0  0  0  0  0  0
  -23.3015  -16.6577  -18.0717 H   0  0  0  0  0  0
  -24.3915  -18.1519  -16.4134 H   0  0  0  0  0  0
  -25.4375  -20.2727  -17.1410 H   0  0  0  0  0  0
  -24.3946  -21.8107  -21.8428 H   0  0  0  0  0  0
  -22.5248  -23.9649  -20.9097 H   0  0  0  0  0  0
  -22.5231  -24.4277  -23.2543 H   0  0  0  0  0  0
  -20.6990  -20.9361  -24.1714 H   0  0  0  0  0  0
  -22.4171  -19.2904  -24.8910 H   0  0  0  0  0  0
  -23.0862  -19.9777  -23.4209 H   0  0  0  0  0  0
  -24.0982  -19.7869  -24.8425 H   0  0  0  0  0  0
  -22.0093  -20.8468  -26.9783 H   0  0  0  0  0  0
  -22.6066  -22.5010  -26.9265 H   0  0  0  0  0  0
  -23.7359  -21.1629  -26.8918 H   0  0  0  0  0  0
  1  2  1  0  0  0
  1 37  1  0  0  0
  1 38  1  0  0  0
  1 39  1  0  0  0
  2  3  1  0  0  0
  2 40  1  0  0  0
  2 41  1  0  0  0
  3  8  1  0  0  0
  3  4  1  0  0  0
  4  5  1  0  0  0
  4 42  1  0  0  0
  4 43  1  0  0  0
  5  6  1  0  0  0
  5 44  1  0  0  0
  5 45  1  0  0  0
  6  7  1  0  0  0
  6 11  1  0  0  0
  7  8  1  0  0  0
  7 10  2  0  0  0
  8  9  2  0  0  0
 11 12  1  0  0  0
 11 36  2  0  0  0
 12 13  1  0  0  0
 12 46  1  0  0  0
 13 14  1  0  0  0
 13 20  1  0  0  0
 13 47  1  0  0  0
 14 19  1  0  0  0
 14 15  2  0  0  0
 15 16  1  0  0  0
 15 48  1  0  0  0
 16 17  2  0  0  0
 16 49  1  0  0  0
 17 18  1  0  0  0
 17 50  1  0  0  0
 18 19  2  0  0  0
 18 51  1  0  0  0
 19 52  1  0  0  0
 20 21  1  0  0  0
 20 35  2  0  0  0
 21 22  1  0  0  0
 21 53  1  0  0  0
 22 25  1  0  0  0
 22 23  1  0  0  0
 22 54  1  0  0  0
 23 30  1  0  0  0
 23 24  1  0  0  0
 23 55  1  0  0  0
 24 25  1  0  0  0
 24 27  1  0  0  0
 25 26  2  0  0  0
 27 28  1  0  0  0
 27 32  1  0  0  0
 27 56  1  0  0  0
 28 29  1  0  0  0
 28 30  1  0  0  0
 28 31  1  0  0  0
 29 57  1  0  0  0
 29 58  1  0  0  0
 29 59  1  0  0  0
 31 60  1  0  0  0
 31 61  1  0  0  0
 31 62  1  0  0  0
 32 33  1  0  0  0
 32 34  2  0  0  0
M  CHG  1  33  -1
M  END
> <s_m_entry_id>
27776

> <s_m_entry_name>
data_maestro.11

> <s_m_Source_Path>
C:\Users\olshana1\Git\GramNeg-Accumulation\Gram Negative Permeation - OmpF

> <s_m_Source_File>
data_maestro.csv

> <i_m_Source_File_Index>
11

> <s_m_job_name>
glide-dock_Nicaido_neutral

> <s_i_glide_gridfile>
3POX-grid

> <i_i_glide_lignum>
15

> <i_i_glide_rotatable_bonds>
9

> <r_i_docking_score>
-3.16050780432707

> <r_i_glide_ligand_efficiency>
-0.0877918834535298

> <r_i_glide_ligand_efficiency_sa>
-0.289882411860725

> <r_i_glide_ligand_efficiency_ln>
-0.689537415850984

> <r_i_glide_gscore>
-3.16050780432707

> <r_i_glide_lipo>
-0.227229743977127

> <r_i_glide_hbond>
-0.18578082471557

> <r_i_glide_metal>
0

> <r_i_glide_rewards>
0.0121928795107836

> <r_i_glide_evdw>
-32.9826240539551

> <r_i_glide_ecoul>
-7.10908699035645

> <r_i_glide_erotb>
0.461572583116075

> <r_i_glide_esite>
-0.505768447010012

> <r_i_glide_emodel>
-52.4254276173536

> <r_i_glide_energy>
-40.0917110443115

> <r_i_glide_einternal>
10.0810651779175

> <i_i_glide_confnum>
31

> <i_i_glide_posenum>
283

> <r_i_glide_eff_state_penalty>
0

> <r_glide_res:A132_vdw>
-1.54640360360748

> <r_glide_res:A132_coul>
-24.0495869052418

> <r_glide_res:A132_hbond>
0

> <r_glide_res:A132_dist>
2.88686377343369

> <r_glide_res:A132_Eint>
-25.5959905088493

> <r_glide_res:A117_vdw>
-4.41032274801028

> <r_glide_res:A117_coul>
11.3739318176624

> <r_glide_res:A117_hbond>
0

> <r_glide_res:A117_dist>
2.13234540066076

> <r_glide_res:A117_Eint>
6.9636090696521

> <r_glide_res:A113_vdw>
-1.23166172446497

> <r_glide_res:A113_coul>
9.66374920943513

> <r_glide_res:A113_hbond>
0

> <r_glide_res:A113_dist>
3.83891014945906

> <r_glide_res:A113_Eint>
8.43208748497016

> <r_glide_res:A82_vdw>
-1.78062014249524

> <r_glide_res:A82_coul>
-28.07833487427

> <r_glide_res:A82_hbond>
-0.0466758202805641

> <r_glide_res:A82_dist>
2.3145308449728

> <r_glide_res:A82_Eint>
-29.9056308370458

> <r_glide_res:A42_vdw>
-2.57322693727721

> <r_glide_res:A42_coul>
-30.2206213007775

> <r_glide_res:A42_hbond>
-0.135464369250895

> <r_glide_res:A42_dist>
2.15097902687648

> <r_glide_res:A42_Eint>
-32.9293126073056

> <r_glide_res:A16_vdw>
-1.12161103660843

> <r_glide_res:A16_coul>
-17.815610808265

> <r_glide_res:A16_hbond>
0

> <r_glide_res:A16_dist>
2.55904200062799

> <r_glide_res:A16_Eint>
-18.9372218448734

> <s_m_source_file>
ligprep_Nicaido_neutral.maegz

> <i_m_source_file_index>
11

> <i_lp_mmshare_version>
58128

> <i_f3d_flags>
0

> <s_lp_Force_Field>
S-OPLS

> <r_lp_Energy>
67.572455

> <b_lp_Chiralities_Consistent>
1

> <s_lp_Variant>
Piperacillin-1

> <s_epik_input>
W0NIM11bQ0gyXU4xW0NIMl1bQ0gyXU4oQyg9TylDMT1PKUMoPU8pW05IXVtDQEhdKGMyW2NIXVtjSF1bY0hdW2NIXVtjSF0yKUMoPU8pW05IXVtDQEBIXTNDKD1PKU4oW0NAQEhdMzQpW0NASF0oQyhTNCkoW0NIM10pW0NIM10pQyg9TylbT0hd

> <s_epik_cmdline>
J2VwaWtfcHl0aG9uJywgJy1waHQnLCAnMC4wJywgJy1waCcsICc3LjQnLCAnLW50JywgJy1tYScsICc1MDAnLCAnLWltYWUnLCAnPGluZmlsZS5tYWU+JywgJy1vbWFlJywgJzxvdXRmaWxlLm1hZT4n

> <r_lp_tautomer_probability>
1

> <r_epik_Ionization_Penalty>
  0.0049

> <r_epik_Ionization_Penalty_Charging>
  0.0000

> <r_epik_Ionization_Penalty_Neutral>
  0.0049

> <r_epik_State_Penalty>
  0.0000

> <r_epik_Charging_Adjusted_Penalty>
1.13204004886318e-05

> <i_epik_Tot_Q>
-1

> <i_epik_Tot_abs_Q>
1

> <s_epik_Chemistry_Notes>
This compound contains an acetal/aminal-like group ( X-CH(R)-Y where X, Y are N, S, or O) that may be acid/base labile, releasing an aldehyde.

> <s_m_subgroup_title>
glide-dock_Nicaido_neutral_pv1

> <s_m_subgroupid>
glide-dock_Nicaido_neutral_pv1

> <b_m_subgroup_collapsed>
0

$$$$
Cephaloglycin
                    3D
 Schrodinger Suite 2022-2.
 46 48  0  0  1  0            999 V2000
  -30.1432  -17.9769  -24.7431 C   0  0  0  0  0  0
  -30.4880  -19.1981  -25.5901 C   0  0  0  0  0  0
  -30.9280  -20.3058  -24.9403 O   0  0  0  0  0  0
  -31.1053  -20.3959  -23.5260 C   0  0  0  0  0  0
  -29.8058  -20.6041  -22.7528 C   0  0  0  0  0  0
  -29.0190  -21.7029  -22.9010 C   0  0  0  0  0  0
  -27.8743  -21.9167  -22.1160 N   0  0  0  0  0  0
  -27.6817  -21.3007  -20.8161 C   0  0  1  0  0  0
  -26.2797  -21.9375  -20.8360 C   0  0  2  0  0  0
  -26.8863  -22.8581  -21.9253 C   0  0  0  0  0  0
  -26.6792  -23.9496  -22.4133 O   0  0  0  0  0  0
  -25.9689  -22.5931  -19.5686 N   0  0  0  0  0  0
  -25.0893  -23.5928  -19.4166 C   0  0  0  0  0  0
  -24.9918  -24.2062  -18.0134 C   0  0  2  0  0  0
  -23.5431  -24.1747  -17.6474 C   0  0  0  0  0  0
  -22.6169  -25.1495  -18.0934 C   0  0  0  0  0  0
  -21.2617  -25.1062  -17.7124 C   0  0  0  0  0  0
  -20.8013  -24.0776  -16.8715 C   0  0  0  0  0  0
  -21.7007  -23.0975  -16.4173 C   0  0  0  0  0  0
  -23.0529  -23.1496  -16.8048 C   0  0  0  0  0  0
  -25.5689  -25.5495  -18.0134 N   0  0  0  0  0  0
  -24.4540  -24.0749  -20.3571 O   0  0  0  0  0  0
  -27.8912  -19.5218  -20.9905 S   0  0  0  0  0  0
  -29.5622  -19.5317  -21.6870 C   0  0  0  0  0  0
  -29.3764  -22.8940  -23.8512 C   0  0  0  0  0  0
  -29.1689  -22.7496  -25.0813 O   0  5  0  0  0  0
  -29.7003  -23.9496  -23.2583 O   0  0  0  0  0  0
  -30.3690  -19.1496  -26.8134 O   0  0  0  0  0  0
  -29.9690  -17.1255  -25.3987 H   0  0  0  0  0  0
  -30.9495  -17.7114  -24.0601 H   0  0  0  0  0  0
  -29.2262  -18.1487  -24.1801 H   0  0  0  0  0  0
  -31.7548  -21.2477  -23.3234 H   0  0  0  0  0  0
  -31.6401  -19.5239  -23.1487 H   0  0  0  0  0  0
  -28.3679  -21.7158  -20.0720 H   0  0  0  0  0  0
  -25.5047  -21.2523  -21.1845 H   0  0  0  0  0  0
  -26.4648  -22.2590  -18.7533 H   0  0  0  0  0  0
  -25.5699  -23.5921  -17.3193 H   0  0  0  0  0  0
  -22.9543  -25.9368  -18.7517 H   0  0  0  0  0  0
  -20.5748  -25.8543  -18.0770 H   0  0  0  0  0  0
  -19.7611  -24.0285  -16.5859 H   0  0  0  0  0  0
  -21.3567  -22.3004  -15.7741 H   0  0  0  0  0  0
  -23.7272  -22.3871  -16.4403 H   0  0  0  0  0  0
  -26.1313  -25.6358  -17.1665 H   0  0  0  0  0  0
  -26.2280  -25.6462  -18.7710 H   0  0  0  0  0  0
  -29.7677  -18.5347  -22.0725 H   0  0  0  0  0  0
  -30.2671  -19.6992  -20.8725 H   0  0  0  0  0  0
  1  2  1  0  0  0
  1 29  1  0  0  0
  1 30  1  0  0  0
  1 31  1  0  0  0
  2  3  1  0  0  0
  2 28  2  0  0  0
  3  4  1  0  0  0
  4  5  1  0  0  0
  4 32  1  0  0  0
  4 33  1  0  0  0
  5 24  1  0  0  0
  5  6  2  0  0  0
  6  7  1  0  0  0
  6 25  1  0  0  0
  7 10  1  0  0  0
  7  8  1  0  0  0
  8  9  1  0  0  0
  8 23  1  0  0  0
  8 34  1  0  0  0
  9 10  1  0  0  0
  9 12  1  0  0  0
  9 35  1  0  0  0
 10 11  2  0  0  0
 12 13  1  0  0  0
 12 36  1  0  0  0
 13 14  1  0  0  0
 13 22  2  0  0  0
 14 15  1  0  0  0
 14 21  1  0  0  0
 14 37  1  0  0  0
 15 20  1  0  0  0
 15 16  2  0  0  0
 16 17  1  0  0  0
 16 38  1  0  0  0
 17 18  2  0  0  0
 17 39  1  0  0  0
 18 19  1  0  0  0
 18 40  1  0  0  0
 19 20  2  0  0  0
 19 41  1  0  0  0
 20 42  1  0  0  0
 21 43  1  0  0  0
 21 44  1  0  0  0
 23 24  1  0  0  0
 24 45  1  0  0  0
 24 46  1  0  0  0
 25 26  1  0  0  0
 25 27  2  0  0  0
M  CHG  1  26  -1
M  END
> <s_m_entry_id>
27777

> <s_m_entry_name>
data_maestro.16

> <s_m_Source_Path>
C:\Users\olshana1\Git\GramNeg-Accumulation\Gram Negative Permeation - OmpF

> <s_m_Source_File>
data_maestro.csv

> <i_m_Source_File_Index>
16

> <s_m_job_name>
glide-dock_Nicaido_neutral

> <s_i_glide_gridfile>
3POX-grid

> <i_i_glide_lignum>
21

> <i_i_glide_rotatable_bonds>
8

> <r_i_docking_score>
-3.15589915683114

> <r_i_glide_ligand_efficiency>
-0.112710684172541

> <r_i_glide_ligand_efficiency_sa>
-0.342256020190742

> <r_i_glide_ligand_efficiency_ln>
-0.728474186622253

> <r_i_glide_gscore>
-3.26729915683114

> <r_i_glide_lipo>
0

> <r_i_glide_hbond>
-1.21460128489044

> <r_i_glide_metal>
0

> <r_i_glide_rewards>
2.15038994616516

> <r_i_glide_evdw>
-25.825719833374

> <r_i_glide_ecoul>
-20.4899501800537

> <r_i_glide_erotb>
0.600502745111863

> <r_i_glide_esite>
-0.438812044540968

> <r_i_glide_emodel>
-51.7676969907273

> <r_i_glide_energy>
-46.3156700134277

> <r_i_glide_einternal>
8.76049613952637

> <i_i_glide_confnum>
52

> <i_i_glide_posenum>
43

> <r_i_glide_eff_state_penalty>
0.1114

> <r_glide_res:A132_vdw>
-3.0236165346867

> <r_glide_res:A132_coul>
-33.6794248581839

> <r_glide_res:A132_hbond>
-0.0765688601918266

> <r_glide_res:A132_dist>
2.15812839424981

> <r_glide_res:A132_Eint>
-36.7796102530624

> <r_glide_res:A117_vdw>
-2.75031866230736

> <r_glide_res:A117_coul>
23.7503828596981

> <r_glide_res:A117_hbond>
0

> <r_glide_res:A117_dist>
2.20813930965213

> <r_glide_res:A117_Eint>
21.0000641973907

> <r_glide_res:A113_vdw>
-2.23488824346398

> <r_glide_res:A113_coul>
15.4505158122146

> <r_glide_res:A113_hbond>
0

> <r_glide_res:A113_dist>
2.30765514825973

> <r_glide_res:A113_Eint>
13.2156275687506

> <r_glide_res:A82_vdw>
1.57514658204633

> <r_glide_res:A82_coul>
-53.6076770799945

> <r_glide_res:A82_hbond>
-0.338459598161474

> <r_glide_res:A82_dist>
1.75779113701599

> <r_glide_res:A82_Eint>
-52.3709900961096

> <r_glide_res:A42_vdw>
-0.113059333873169

> <r_glide_res:A42_coul>
-49.6694481332541

> <r_glide_res:A42_hbond>
-0.2

> <r_glide_res:A42_dist>
1.77529278858187

> <r_glide_res:A42_Eint>
-49.9825074671272

> <r_glide_res:A16_vdw>
-0.378359411517779

> <r_glide_res:A16_coul>
-38.5376855844749

> <r_glide_res:A16_hbond>
-0.00790827298983704

> <r_glide_res:A16_dist>
2.39935106490284

> <r_glide_res:A16_Eint>
-38.9239532689825

> <s_m_source_file>
ligprep_Nicaido_neutral.maegz

> <i_m_source_file_index>
16

> <i_lp_mmshare_version>
58128

> <i_f3d_flags>
0

> <s_lp_Force_Field>
S-OPLS

> <r_lp_Energy>
48.658328

> <b_lp_Chiralities_Consistent>
1

> <s_lp_Variant>
Cephaloglycin-1

> <s_epik_input>
W0NIM11DKD1PKU9bQ0gyXUMoPUMxQyg9TylbT0hdKVtDSDJdU1tDQEBIXShOMTIpW0NASF0oQzI9TylbTkhdQyg9TylbQ0BASF0oW05IMl0pYzNbY0hdW2NIXVtjSF1bY0hdW2NIXTM=

> <s_epik_cmdline>
J2VwaWtfcHl0aG9uJywgJy1waHQnLCAnMC4wJywgJy1waCcsICc3LjQnLCAnLW50JywgJy1tYScsICc1MDAnLCAnLWltYWUnLCAnPGluZmlsZS5tYWU+JywgJy1vbWFlJywgJzxvdXRmaWxlLm1hZT4n

> <r_epik_Ionization_Penalty>
  0.1114

> <r_epik_Ionization_Penalty_Charging>
  0.0000

> <r_epik_Ionization_Penalty_Neutral>
  0.1114

> <r_epik_State_Penalty>
  0.1114

> <r_epik_Charging_Adjusted_Penalty>
0.111378695294398

> <i_epik_Tot_Q>
-1

> <i_epik_Tot_abs_Q>
1

> <s_epik_Chemistry_Notes>
This compound has an ester and may undergo hydrolysis at high or low pH. This compound contains an acetal/aminal-like group ( X-CH(R)-Y where X, Y are N, S, or O) that may be acid/base labile, releasing an aldehyde.

> <s_m_subgroup_title>
glide-dock_Nicaido_neutral_pv1

> <s_m_subgroupid>
glide-dock_Nicaido_neutral_pv1

> <b_m_subgroup_collapsed>
0

$$$$
Nocardicin B
                    3D
 Schrodinger Suite 2022-2.
 59 61  0  0  1  0            999 V2000
  -31.5689  -24.7619  -25.6772 O   0  0  0  0  0  0
  -32.3628  -24.0185  -26.2119 C   0  0  0  0  0  0
  -33.0295  -22.6829  -25.8483 C   0  0  2  0  0  0
  -33.6734  -22.7690  -27.2336 C   0  0  0  0  0  0
  -33.0372  -24.0824  -27.4141 N   0  0  0  0  0  0
  -33.1669  -25.0570  -28.5112 C   0  0  2  0  0  0
  -34.1523  -26.1396  -28.1585 C   0  0  0  0  0  0
  -35.1051  -26.5782  -29.1106 C   0  0  0  0  0  0
  -36.0629  -27.5704  -28.8122 C   0  0  0  0  0  0
  -36.0997  -28.1504  -27.5308 C   0  0  0  0  0  0
  -35.1693  -27.7322  -26.5647 C   0  0  0  0  0  0
  -34.2106  -26.7495  -26.8807 C   0  0  0  0  0  0
  -37.0174  -29.1132  -27.2133 O   0  0  0  0  0  0
  -31.8682  -25.7385  -29.0195 C   0  0  0  0  0  0
  -30.7845  -25.5498  -28.4132 O   0  5  0  0  0  0
  -31.9490  -26.3690  -30.0952 O   0  0  0  0  0  0
  -32.1014  -21.5584  -25.7373 N   0  0  0  0  0  0
  -31.1959  -21.4107  -24.7537 C   0  0  0  0  0  0
  -30.3070  -20.1953  -24.9355 C   0  0  0  0  0  0
  -29.4465  -19.9246  -23.7575 C   0  0  0  0  0  0
  -29.9695  -19.2613  -22.6238 C   0  0  0  0  0  0
  -29.1709  -19.0747  -21.4801 C   0  0  0  0  0  0
  -27.8463  -19.5537  -21.4510 C   0  0  0  0  0  0
  -27.3114  -20.1888  -22.5933 C   0  0  0  0  0  0
  -28.1058  -20.3687  -23.7406 C   0  0  0  0  0  0
  -27.1025  -19.3886  -20.3089 O   0  0  0  0  0  0
  -26.6836  -20.5981  -19.6878 C   0  0  0  0  0  0
  -27.8857  -21.2708  -18.9945 C   0  0  0  0  0  0
  -27.5764  -22.6353  -18.3444 C   0  0  2  0  0  0
  -27.1957  -23.7130  -19.3770 C   0  0  0  0  0  0
  -27.9940  -23.9494  -20.3083 O   0  5  0  0  0  0
  -26.1262  -24.3399  -19.2113 O   0  0  0  0  0  0
  -28.7638  -23.1079  -17.6173 N   0  3  0  0  0  0
  -30.2933  -19.5304  -26.0238 N   0  0  0  0  0  0
  -29.3378  -18.4621  -25.9619 O   0  0  0  0  0  0
  -31.0660  -22.1972  -23.8150 O   0  0  0  0  0  0
  -33.7590  -22.7407  -25.0401 H   0  0  0  0  0  0
  -34.7653  -22.8092  -27.2016 H   0  0  0  0  0  0
  -33.3331  -22.0153  -27.9467 H   0  0  0  0  0  0
  -33.5464  -24.4880  -29.3605 H   0  0  0  0  0  0
  -35.0953  -26.1502  -30.1018 H   0  0  0  0  0  0
  -36.7627  -27.8843  -29.5731 H   0  0  0  0  0  0
  -35.1626  -28.1733  -25.5781 H   0  0  0  0  0  0
  -33.4975  -26.4887  -26.1169 H   0  0  0  0  0  0
  -36.9842  -29.3053  -26.2880 H   0  0  0  0  0  0
  -32.1718  -20.8120  -26.4121 H   0  0  0  0  0  0
  -30.9926  -18.9066  -22.6176 H   0  0  0  0  0  0
  -29.5782  -18.5776  -20.6093 H   0  0  0  0  0  0
  -26.2887  -20.5344  -22.5932 H   0  0  0  0  0  0
  -27.6878  -20.8637  -24.6039 H   0  0  0  0  0  0
  -25.9269  -20.3508  -18.9420 H   0  0  0  0  0  0
  -26.2051  -21.2666  -20.4038 H   0  0  0  0  0  0
  -28.7089  -21.3941  -19.7014 H   0  0  0  0  0  0
  -28.2676  -20.5832  -18.2371 H   0  0  0  0  0  0
  -26.7688  -22.5183  -17.6190 H   0  0  0  0  0  0
  -28.5883  -24.0293  -17.2458 H   0  0  0  0  0  0
  -28.9739  -22.4606  -16.8725 H   0  0  0  0  0  0
  -29.0891  -18.4396  -25.0469 H   0  0  0  0  0  0
  -29.5521  -23.1252  -18.2526 H   0  0  0  0  0  0
  1  2  2  0  0  0
  2  5  1  0  0  0
  2  3  1  0  0  0
  3  4  1  0  0  0
  3 17  1  0  0  0
  3 37  1  0  0  0
  4  5  1  0  0  0
  4 38  1  0  0  0
  4 39  1  0  0  0
  5  6  1  0  0  0
  6  7  1  0  0  0
  6 14  1  0  0  0
  6 40  1  0  0  0
  7 12  1  0  0  0
  7  8  2  0  0  0
  8  9  1  0  0  0
  8 41  1  0  0  0
  9 10  2  0  0  0
  9 42  1  0  0  0
 10 11  1  0  0  0
 10 13  1  0  0  0
 11 12  2  0  0  0
 11 43  1  0  0  0
 12 44  1  0  0  0
 13 45  1  0  0  0
 14 15  1  0  0  0
 14 16  2  0  0  0
 17 18  1  0  0  0
 17 46  1  0  0  0
 18 19  1  0  0  0
 18 36  2  0  0  0
 19 20  1  0  0  0
 19 34  2  3  0  0
 20 25  1  0  0  0
 20 21  2  0  0  0
 21 22  1  0  0  0
 21 47  1  0  0  0
 22 23  2  0  0  0
 22 48  1  0  0  0
 23 24  1  0  0  0
 23 26  1  0  0  0
 24 25  2  0  0  0
 24 49  1  0  0  0
 25 50  1  0  0  0
 26 27  1  0  0  0
 27 28  1  0  0  0
 27 51  1  0  0  0
 27 52  1  0  0  0
 28 29  1  0  0  0
 28 53  1  0  0  0
 28 54  1  0  0  0
 29 30  1  0  0  0
 29 33  1  0  0  0
 29 55  1  0  0  0
 30 31  1  0  0  0
 30 32  2  0  0  0
 33 56  1  0  0  0
 33 57  1  0  0  0
 33 59  1  0  0  0
 34 35  1  0  0  0
 35 58  1  0  0  0
M  CHG  3  15  -1  31  -1  33   1
M  END
> <s_m_entry_id>
27778

> <s_m_entry_name>
data_maestro.29

> <s_m_Source_Path>
C:\Users\olshana1\Git\GramNeg-Accumulation\Gram Negative Permeation - OmpF

> <s_m_Source_File>
data_maestro.csv

> <i_m_Source_File_Index>
29

> <s_m_job_name>
glide-dock_Nicaido_neutral

> <s_i_glide_gridfile>
3POX-grid

> <i_i_glide_lignum>
36

> <i_i_glide_rotatable_bonds>
14

> <r_i_docking_score>
-3.11127154409572

> <r_i_glide_ligand_efficiency>
-0.0864242095582144

> <r_i_glide_ligand_efficiency_sa>
-0.285366452163576

> <r_i_glide_ligand_efficiency_ln>
-0.67879539407853

> <r_i_glide_gscore>
-3.11127154409572

> <r_i_glide_lipo>
-0.125345992635442

> <r_i_glide_hbond>
-0.790169747288521

> <r_i_glide_metal>
0

> <r_i_glide_rewards>
1.28234148616159

> <r_i_glide_evdw>
-31.6818027496338

> <r_i_glide_ecoul>
-14.3274154663086

> <r_i_glide_erotb>
0.900147327125679

> <r_i_glide_esite>
-0.645042160031042

> <r_i_glide_emodel>
-59.0776204449464

> <r_i_glide_energy>
-46.0092182159424

> <r_i_glide_einternal>
8.26626873016357

> <i_i_glide_confnum>
738

> <i_i_glide_posenum>
78

> <r_i_glide_eff_state_penalty>
0

> <r_glide_res:A132_vdw>
1.44235205958467

> <r_glide_res:A132_coul>
-43.2707485630932

> <r_glide_res:A132_hbond>
-0.321092810165311

> <r_glide_res:A132_dist>
1.77488791719536

> <r_glide_res:A132_Eint>
-42.1494893136739

> <r_glide_res:A117_vdw>
-2.97266133529732

> <r_glide_res:A117_coul>
18.8293222651597

> <r_glide_res:A117_hbond>
0

> <r_glide_res:A117_dist>
2.71997315779546

> <r_glide_res:A117_Eint>
15.8566609298623

> <r_glide_res:A113_vdw>
-1.75399015626531

> <r_glide_res:A113_coul>
-7.52718350805976

> <r_glide_res:A113_hbond>
-0.109076937123209

> <r_glide_res:A113_dist>
2.03723871011714

> <r_glide_res:A113_Eint>
-9.39025060144828

> <r_glide_res:A82_vdw>
-1.91894460446237

> <r_glide_res:A82_coul>
-44.3205888011297

> <r_glide_res:A82_hbond>
0

> <r_glide_res:A82_dist>
2.83985339462309

> <r_glide_res:A82_Eint>
-46.2395334055921

> <r_glide_res:A42_vdw>
-1.27904573867907

> <r_glide_res:A42_coul>
-55.021462385305

> <r_glide_res:A42_hbond>
-0.2

> <r_glide_res:A42_dist>
1.71284503276656

> <r_glide_res:A42_Eint>
-56.5005081239841

> <r_glide_res:A16_vdw>
-4.30842901634398

> <r_glide_res:A16_coul>
-32.5776701915864

> <r_glide_res:A16_hbond>
0

> <r_glide_res:A16_dist>
2.01600236307167

> <r_glide_res:A16_Eint>
-36.8860992079304

> <s_m_source_file>
ligprep_Nicaido_neutral.maegz

> <i_m_source_file_index>
29

> <i_lp_mmshare_version>
58128

> <i_f3d_flags>
0

> <s_lp_Force_Field>
S-OPLS

> <r_lp_Energy>
60.848016

> <b_lp_Chiralities_Consistent>
1

> <s_lp_Variant>
Nocardicin B-1

> <s_epik_input>
W2NIXTFbY0hdYyhbT0hdKVtjSF1bY0hdYzFbQ0BIXShDKD1PKVtPSF0pTjJbQ0gyXVtDQEBIXShDMj1PKVtOSF1DKD1PKS9DKD1OL1tPSF0pYzNbY0hdW2NIXWMoW2NIXVtjSF0zKU9bQ0gyXVtDSDJdW0NAQEhdKFtOSDJdKUMoPU8pW09IXQ==

> <s_epik_cmdline>
J2VwaWtfcHl0aG9uJywgJy1waHQnLCAnMC4wJywgJy1waCcsICc3LjQnLCAnLW50JywgJy1tYScsICc1MDAnLCAnLWltYWUnLCAnPGluZmlsZS5tYWU+JywgJy1vbWFlJywgJzxvdXRmaWxlLm1hZT4n

> <r_lp_tautomer_probability>
1

> <r_epik_Ionization_Penalty>
  0.0116

> <r_epik_Ionization_Penalty_Charging>
  0.0086

> <r_epik_Ionization_Penalty_Neutral>
  0.0030

> <r_epik_State_Penalty>
  0.0000

> <r_epik_Charging_Adjusted_Penalty>
0.0085560600321308

> <i_epik_Tot_Q>
-1

> <i_epik_Tot_abs_Q>
3

> <s_epik_Chemistry_Notes>
This compound has an imine and may undergo hydrolysis.

> <s_m_subgroup_title>
glide-dock_Nicaido_neutral_pv1

> <s_m_subgroupid>
glide-dock_Nicaido_neutral_pv1

> <b_m_subgroup_collapsed>
0

$$$$
Nalidixic acid
                    3D
 Schrodinger Suite 2022-2.
 28 29  0  0  1  0            999 V2000
  -36.6660  -28.0587  -27.2665 C   0  0  0  0  0  0
  -35.3947  -28.1469  -28.1203 C   0  0  0  0  0  0
  -34.8231  -26.8308  -28.4053 N   0  0  0  0  0  0
  -33.7692  -26.3302  -27.6496 C   0  0  0  0  0  0
  -33.1628  -25.1330  -27.8281 C   0  0  0  0  0  0
  -33.6695  -24.2761  -28.9436 C   0  0  0  0  0  0
  -34.8038  -24.8104  -29.7516 C   0  0  0  0  0  0
  -35.3638  -26.0796  -29.4685 C   0  0  0  0  0  0
  -36.3966  -26.5898  -30.1852 N   0  0  0  0  0  0
  -36.9063  -25.8620  -31.2002 C   0  0  0  0  0  0
  -36.4203  -24.5916  -31.5536 C   0  0  0  0  0  0
  -35.3496  -24.0590  -30.8148 C   0  0  0  0  0  0
  -38.0562  -26.4902  -31.9559 C   0  0  0  0  0  0
  -33.1838  -23.1749  -29.2074 O   0  0  0  0  0  0
  -31.9870  -24.6902  -26.8682 C   0  0  0  0  0  0
  -31.5690  -25.5476  -26.0575 O   0  5  0  0  0  0
  -31.5217  -23.5347  -27.0029 O   0  0  0  0  0  0
  -37.0527  -29.0532  -27.0446 H   0  0  0  0  0  0
  -36.4624  -27.5630  -26.3173 H   0  0  0  0  0  0
  -37.4507  -27.4978  -27.7742 H   0  0  0  0  0  0
  -35.5962  -28.6860  -29.0453 H   0  0  0  0  0  0
  -34.6547  -28.7496  -27.5947 H   0  0  0  0  0  0
  -33.4593  -27.0024  -26.8563 H   0  0  0  0  0  0
  -36.8516  -24.0341  -32.3720 H   0  0  0  0  0  0
  -34.9556  -23.0873  -31.0675 H   0  0  0  0  0  0
  -38.6186  -25.7419  -32.5141 H   0  0  0  0  0  0
  -37.6804  -27.2237  -32.6660 H   0  0  0  0  0  0
  -38.7400  -26.9937  -31.2723 H   0  0  0  0  0  0
  1  2  1  0  0  0
  1 18  1  0  0  0
  1 19  1  0  0  0
  1 20  1  0  0  0
  2  3  1  0  0  0
  2 21  1  0  0  0
  2 22  1  0  0  0
  3  8  1  0  0  0
  3  4  1  0  0  0
  4  5  2  0  0  0
  4 23  1  0  0  0
  5  6  1  0  0  0
  5 15  1  0  0  0
  6  7  1  0  0  0
  6 14  2  0  0  0
  7 12  2  0  0  0
  7  8  1  0  0  0
  8  9  2  0  0  0
  9 10  1  0  0  0
 10 11  2  0  0  0
 10 13  1  0  0  0
 11 12  1  0  0  0
 11 24  1  0  0  0
 12 25  1  0  0  0
 13 26  1  0  0  0
 13 27  1  0  0  0
 13 28  1  0  0  0
 15 16  1  0  0  0
 15 17  2  0  0  0
M  CHG  1  16  -1
M  END
> <s_m_entry_id>
27779

> <s_m_entry_name>
data_maestro.31

> <s_m_Source_Path>
C:\Users\olshana1\Git\GramNeg-Accumulation\Gram Negative Permeation - OmpF

> <s_m_Source_File>
data_maestro.csv

> <i_m_Source_File_Index>
31

> <s_m_job_name>
glide-dock_Nicaido_neutral

> <s_i_glide_gridfile>
3POX-grid

> <i_i_glide_lignum>
40

> <i_i_glide_rotatable_bonds>
2

> <r_i_docking_score>
-3.1005656531

> <r_i_glide_ligand_efficiency>
-0.182386214888235

> <r_i_glide_ligand_efficiency_sa>
-0.468966316289063

> <r_i_glide_ligand_efficiency_ln>
-0.80886853269144

> <r_i_glide_gscore>
-3.1005656531

> <r_i_glide_lipo>
-0.0272356602682208

> <r_i_glide_hbond>
0

> <r_i_glide_metal>
0

> <r_i_glide_rewards>
-1.96104981417444

> <r_i_glide_evdw>
-16.4839820861816

> <r_i_glide_ecoul>
-1.50337588787079

> <r_i_glide_erotb>
0

> <r_i_glide_esite>
-0.0625746911676432

> <r_i_glide_emodel>
-27.3914511663424

> <r_i_glide_energy>
-17.9873579740524

> <r_i_glide_einternal>
0.0457612089812756

> <i_i_glide_confnum>
1

> <i_i_glide_posenum>
222

> <r_i_glide_eff_state_penalty>
0

> <r_glide_res:A132_vdw>
-0.0939782540584813

> <r_glide_res:A132_coul>
-21.0345348686547

> <r_glide_res:A132_hbond>
0

> <r_glide_res:A132_dist>
6.10338699047166

> <r_glide_res:A132_Eint>
-21.1285131227132

> <r_glide_res:A117_vdw>
-0.0307887807339207

> <r_glide_res:A117_coul>
18.3910367070682

> <r_glide_res:A117_hbond>
0

> <r_glide_res:A117_dist>
8.64783857323721

> <r_glide_res:A117_Eint>
18.3602479263342

> <r_glide_res:A113_vdw>
-0.0348241228461763

> <r_glide_res:A113_coul>
19.1493823343232

> <r_glide_res:A113_hbond>
0

> <r_glide_res:A113_dist>
8.67599114746921

> <r_glide_res:A113_Eint>
19.1145582114771

> <r_glide_res:A82_vdw>
-0.656964456596697

> <r_glide_res:A82_coul>
-35.8826183342316

> <r_glide_res:A82_hbond>
0

> <r_glide_res:A82_dist>
2.50774537509522

> <r_glide_res:A82_Eint>
-36.5395827908283

> <r_glide_res:A42_vdw>
-1.13436983481337

> <r_glide_res:A42_coul>
-40.0073194220156

> <r_glide_res:A42_hbond>
0

> <r_glide_res:A42_dist>
2.55916217757947

> <r_glide_res:A42_Eint>
-41.141689256829

> <r_glide_res:A16_vdw>
-2.42416598331835

> <r_glide_res:A16_coul>
-46.0223918225785

> <r_glide_res:A16_hbond>
0

> <r_glide_res:A16_dist>
2.53320180608705

> <r_glide_res:A16_Eint>
-48.4465578058968

> <s_m_source_file>
ligprep_Nicaido_neutral.maegz

> <i_m_source_file_index>
31

> <i_lp_mmshare_version>
58128

> <i_f3d_flags>
0

> <s_lp_Force_Field>
S-OPLS

> <r_lp_Energy>
25.048869

> <b_lp_Chiralities_Consistent>
1

> <s_lp_Variant>
Nalidixic acid-1

> <s_epik_input>
Tz1jMWMoQyg9TylbT0hdKVtjSF1uKFtDSDJdW0NIM10pYyhjMTIpbmMoW0NIM10pW2NIXVtjSF0y

> <s_epik_cmdline>
J2VwaWtfcHl0aG9uJywgJy1waHQnLCAnMC4wJywgJy1waCcsICc3LjQnLCAnLW50JywgJy1tYScsICc1MDAnLCAnLWltYWUnLCAnPGluZmlsZS5tYWU+JywgJy1vbWFlJywgJzxvdXRmaWxlLm1hZT4n

> <r_lp_tautomer_probability>
1

> <r_epik_Ionization_Penalty>
  0.0215

> <r_epik_Ionization_Penalty_Charging>
  0.0215

> <r_epik_Ionization_Penalty_Neutral>
  0.0000

> <r_epik_State_Penalty>
  0.0000

> <r_epik_Charging_Adjusted_Penalty>
0.0214516940307923

> <i_epik_Tot_Q>
-1

> <i_epik_Tot_abs_Q>
1

> <s_m_subgroup_title>
glide-dock_Nicaido_neutral_pv1

> <s_m_subgroupid>
glide-dock_Nicaido_neutral_pv1

> <b_m_subgroup_collapsed>
0

$$$$
LY097964
                    3D
 Schrodinger Suite 2022-2.
 40 42  0  0  1  0            999 V2000
  -21.2816  -25.1756  -17.8326 C   0  0  0  0  0  0
  -22.2479  -24.6090  -16.9671 O   0  0  0  0  0  0
  -23.4912  -24.6663  -17.6129 N   0  0  0  0  0  0
  -24.1201  -23.5518  -17.6661 C   0  0  0  0  0  0
  -23.6366  -22.2352  -17.1206 C   0  0  0  0  0  0
  -22.9735  -22.1305  -15.9191 C   0  0  0  0  0  0
  -22.3697  -20.5240  -15.6135 S   0  0  0  0  0  0
  -23.1690  -20.0018  -17.0829 C   0  0  0  0  0  0
  -23.1856  -18.6759  -17.4686 N   0  0  0  0  0  0
  -23.7420  -20.9926  -17.7661 N   0  0  0  0  0  0
  -25.4403  -23.5270  -18.4171 C   0  0  0  0  0  0
  -26.2897  -22.5398  -18.0538 N   0  0  0  0  0  0
  -27.4746  -22.0325  -18.7690 C   0  0  1  0  0  0
  -27.0781  -21.3770  -20.1053 C   0  0  1  0  0  0
  -28.1871  -22.1127  -20.6984 N   0  0  0  0  0  0
  -28.2715  -23.0275  -19.6569 C   0  0  0  0  0  0
  -28.7453  -24.1399  -19.5587 O   0  0  0  0  0  0
  -28.4400  -21.9548  -22.0745 C   0  0  0  0  0  0
  -28.3707  -23.2630  -22.9768 C   0  0  0  0  0  0
  -28.0701  -24.3473  -22.4135 O   0  5  0  0  0  0
  -28.5345  -23.1508  -24.2131 O   0  0  0  0  0  0
  -28.6720  -20.6742  -22.4861 C   0  0  0  0  0  0
  -28.7020  -19.5440  -21.4590 C   0  0  0  0  0  0
  -27.2250  -19.5743  -20.4126 S   0  0  0  0  0  0
  -28.9658  -20.1767  -23.8967 C   0  0  0  0  0  0
  -25.6578  -24.3476  -19.3150 O   0  0  0  0  0  0
  -20.3115  -25.1894  -17.3371 H   0  0  0  0  0  0
  -21.5396  -26.1973  -18.1080 H   0  0  0  0  0  0
  -21.1816  -24.5855  -18.7457 H   0  0  0  0  0  0
  -22.7689  -22.9149  -15.2133 H   0  0  0  0  0  0
  -23.8582  -18.3945  -18.1682 H   0  0  0  0  0  0
  -22.9829  -17.9642  -16.7789 H   0  0  0  0  0  0
  -26.0038  -21.9625  -17.2744 H   0  0  0  0  0  0
  -28.0999  -21.3780  -18.1583 H   0  0  0  0  0  0
  -26.1328  -21.7428  -20.5145 H   0  0  0  0  0  0
  -28.7687  -18.5664  -21.9367 H   0  0  0  0  0  0
  -29.5842  -19.6521  -20.8238 H   0  0  0  0  0  0
  -28.1774  -19.4919  -24.2099 H   0  0  0  0  0  0
  -29.0585  -20.9381  -24.6615 H   0  0  0  0  0  0
  -29.9030  -19.6195  -23.8942 H   0  0  0  0  0  0
  1  2  1  0  0  0
  1 27  1  0  0  0
  1 28  1  0  0  0
  1 29  1  0  0  0
  2  3  1  0  0  0
  3  4  2  3  0  0
  4  5  1  0  0  0
  4 11  1  0  0  0
  5 10  1  0  0  0
  5  6  2  0  0  0
  6  7  1  0  0  0
  6 30  1  0  0  0
  7  8  1  0  0  0
  8  9  1  0  0  0
  8 10  2  0  0  0
  9 31  1  0  0  0
  9 32  1  0  0  0
 11 12  1  0  0  0
 11 26  2  0  0  0
 12 13  1  0  0  0
 12 33  1  0  0  0
 13 16  1  0  0  0
 13 14  1  0  0  0
 13 34  1  0  0  0
 14 24  1  0  0  0
 14 15  1  0  0  0
 14 35  1  0  0  0
 15 16  1  0  0  0
 15 18  1  0  0  0
 16 17  2  0  0  0
 18 19  1  0  0  0
 18 22  2  0  0  0
 19 20  1  0  0  0
 19 21  2  0  0  0
 22 23  1  0  0  0
 22 25  1  0  0  0
 23 24  1  0  0  0
 23 36  1  0  0  0
 23 37  1  0  0  0
 25 38  1  0  0  0
 25 39  1  0  0  0
 25 40  1  0  0  0
M  CHG  1  20  -1
M  END
> <s_m_entry_id>
27780

> <s_m_entry_name>
data_maestro.7

> <s_m_Source_Path>
C:\Users\olshana1\Git\GramNeg-Accumulation\Gram Negative Permeation - OmpF

> <s_m_Source_File>
data_maestro.csv

> <i_m_Source_File_Index>
7

> <s_m_job_name>
glide-dock_Nicaido_neutral

> <s_i_glide_gridfile>
3POX-grid

> <i_i_glide_lignum>
9

> <i_i_glide_rotatable_bonds>
6

> <r_i_docking_score>
-3.03622592925491

> <r_i_glide_ligand_efficiency>
-0.116777920355958

> <r_i_glide_ligand_efficiency_sa>
-0.345954129555598

> <r_i_glide_ligand_efficiency_ln>
-0.71304769681565

> <r_i_glide_gscore>
-3.03622592925491

> <r_i_glide_lipo>
-0.0585720999352964

> <r_i_glide_hbond>
-0.612201348225868

> <r_i_glide_metal>
0

> <r_i_glide_rewards>
0.53932938006189

> <r_i_glide_evdw>
-30.2836799621582

> <r_i_glide_ecoul>
-9.49323844909668

> <r_i_glide_erotb>
0.622478626066327

> <r_i_glide_esite>
-0.589090721749549

> <r_i_glide_emodel>
-45.8476517862945

> <r_i_glide_energy>
-39.7769184112549

> <r_i_glide_einternal>
11.2447090148926

> <i_i_glide_confnum>
75

> <i_i_glide_posenum>
66

> <r_i_glide_eff_state_penalty>
0

> <r_glide_res:A132_vdw>
-1.02093566285017

> <r_glide_res:A132_coul>
-50.4662581626139

> <r_glide_res:A132_hbond>
-0.304148699768534

> <r_glide_res:A132_dist>
1.89078370851073

> <r_glide_res:A132_Eint>
-51.7913425252326

> <r_glide_res:A117_vdw>
-1.91689234257141

> <r_glide_res:A117_coul>
21.762398601776

> <r_glide_res:A117_hbond>
0

> <r_glide_res:A117_dist>
2.43960877944414

> <r_glide_res:A117_Eint>
19.8455062592046

> <r_glide_res:A113_vdw>
-3.40963862631094

> <r_glide_res:A113_coul>
23.6893809847348

> <r_glide_res:A113_hbond>
0

> <r_glide_res:A113_dist>
2.53842882205322

> <r_glide_res:A113_Eint>
20.2797423584238

> <r_glide_res:A82_vdw>
1.08727613680545

> <r_glide_res:A82_coul>
-53.0279349517145

> <r_glide_res:A82_hbond>
-0.289343028337587

> <r_glide_res:A82_dist>
1.76854951727365

> <r_glide_res:A82_Eint>
-52.2300018432466

> <r_glide_res:A42_vdw>
-1.17003649614536

> <r_glide_res:A42_coul>
-40.0143607196689

> <r_glide_res:A42_hbond>
-0.0187096201197475

> <r_glide_res:A42_dist>
2.45289454589691

> <r_glide_res:A42_Eint>
-41.203106835934

> <r_glide_res:A16_vdw>
-0.185777129329695

> <r_glide_res:A16_coul>
-24.5670604566815

> <r_glide_res:A16_hbond>
0

> <r_glide_res:A16_dist>
3.67845616541087

> <r_glide_res:A16_Eint>
-24.7528375860112

> <s_m_source_file>
ligprep_Nicaido_neutral.maegz

> <i_m_source_file_index>
7

> <i_lp_mmshare_version>
58128

> <i_f3d_flags>
0

> <s_lp_Force_Field>
S-OPLS

> <r_lp_Energy>
53.750759

> <b_lp_Chiralities_Consistent>
1

> <s_lp_Variant>
LY097964-1

> <s_epik_input>
W05IMl1jKG4xKXNbY0hdYzEvQyg9TlxPW0NIM10pQyg9TylbTkhdW0NAQEhdMkMoPU8pTihbQ0BIXTIzKUMoQyg9TylbT0hdKT1DKFtDSDJdUzMpW0NIM10=

> <s_epik_cmdline>
J2VwaWtfcHl0aG9uJywgJy1waHQnLCAnMC4wJywgJy1waCcsICc3LjQnLCAnLW50JywgJy1tYScsICc1MDAnLCAnLWltYWUnLCAnPGluZmlsZS5tYWU+JywgJy1vbWFlJywgJzxvdXRmaWxlLm1hZT4n

> <r_lp_tautomer_probability>
1

> <r_epik_Ionization_Penalty>
  0.0005

> <r_epik_Ionization_Penalty_Charging>
  0.0000

> <r_epik_Ionization_Penalty_Neutral>
  0.0005

> <r_epik_State_Penalty>
  0.0000

> <r_epik_Charging_Adjusted_Penalty>
1.64985111359435e-05

> <i_epik_Tot_Q>
-1

> <i_epik_Tot_abs_Q>
1

> <s_epik_Chemistry_Notes>
This compound has an imine and may undergo hydrolysis. This compound contains an acetal/aminal-like group ( X-CH(R)-Y where X, Y are N, S, or O) that may be acid/base labile, releasing an aldehyde.

> <s_m_subgroup_title>
glide-dock_Nicaido_neutral_pv1

> <s_m_subgroupid>
glide-dock_Nicaido_neutral_pv1

> <b_m_subgroup_collapsed>
0

$$$$
BL-S217
                    3D
 Schrodinger Suite 2022-2.
 48 50  0  0  1  0            999 V2000
  -26.5985  -22.5098  -23.3711 O   0  0  0  0  0  0
  -26.1860  -21.5702  -22.7204 C   0  0  0  0  0  0
  -25.6341  -20.1345  -22.9511 C   0  0  2  0  0  0
  -26.0069  -19.9122  -21.4676 C   0  0  1  0  0  0
  -26.0305  -21.3608  -21.3677 N   0  0  0  0  0  0
  -26.1105  -22.0647  -20.1606 C   0  0  0  0  0  0
  -26.4691  -23.5622  -20.3070 C   0  0  0  0  0  0
  -27.6755  -23.8789  -20.4133 O   0  5  0  0  0  0
  -25.5026  -24.3495  -20.4127 O   0  0  0  0  0  0
  -25.8292  -21.5181  -18.9548 C   0  0  0  0  0  0
  -25.4644  -20.0536  -18.7704 C   0  0  0  0  0  0
  -24.8101  -19.2546  -20.2646 S   0  0  0  0  0  0
  -25.9042  -22.3152  -17.6586 C   0  0  0  0  0  0
  -24.8339  -23.2573  -17.5785 O   0  0  0  0  0  0
  -23.7393  -23.1124  -16.7988 C   0  0  0  0  0  0
  -23.7282  -21.9314  -15.8295 C   0  0  0  0  0  0
  -22.7974  -23.9053  -16.8148 O   0  0  0  0  0  0
  -26.4378  -19.3031  -23.8418 N   0  0  0  0  0  0
  -26.7805  -19.6343  -25.0945 C   0  0  0  0  0  0
  -27.8137  -18.7487  -25.7828 C   0  0  0  0  0  0
  -29.4152  -19.5822  -25.9970 S   0  0  0  0  0  0
  -30.2498  -19.2959  -24.4754 C   0  0  0  0  0  0
  -31.4351  -18.5392  -24.4682 C   0  0  0  0  0  0
  -32.0721  -18.2882  -23.2384 C   0  0  0  0  0  0
  -31.5336  -18.7390  -22.0783 N   0  3  0  0  0  0
  -32.1986  -18.4463  -20.8138 C   0  0  0  0  0  0
  -30.4005  -19.4810  -22.0567 C   0  0  0  0  0  0
  -29.7370  -19.7944  -23.2598 C   0  0  0  0  0  0
  -26.3613  -20.6448  -25.6579 O   0  0  0  0  0  0
  -24.5603  -20.0716  -23.1362 H   0  0  0  0  0  0
  -27.0031  -19.4896  -21.3083 H   0  0  0  0  0  0
  -26.3681  -19.5489  -18.4433 H   0  0  0  0  0  0
  -24.7249  -19.9388  -17.9797 H   0  0  0  0  0  0
  -25.9654  -21.6360  -16.8117 H   0  0  0  0  0  0
  -26.8395  -22.8752  -17.6474 H   0  0  0  0  0  0
  -22.8688  -21.9992  -15.1624 H   0  0  0  0  0  0
  -23.6643  -20.9864  -16.3654 H   0  0  0  0  0  0
  -24.6264  -21.9341  -15.2126 H   0  0  0  0  0  0
  -26.7702  -18.4214  -23.4641 H   0  0  0  0  0  0
  -27.4331  -18.4274  -26.7511 H   0  0  0  0  0  0
  -27.9735  -17.8397  -25.2078 H   0  0  0  0  0  0
  -31.8402  -18.1369  -25.3851 H   0  0  0  0  0  0
  -32.9728  -17.6966  -23.1592 H   0  0  0  0  0  0
  -33.1515  -17.9459  -20.9857 H   0  0  0  0  0  0
  -32.3692  -19.4031  -20.3265 H   0  0  0  0  0  0
  -31.5400  -17.8203  -20.2099 H   0  0  0  0  0  0
  -30.0591  -19.8089  -21.0829 H   0  0  0  0  0  0
  -28.8443  -20.3991  -23.2356 H   0  0  0  0  0  0
  1  2  2  0  0  0
  2  5  1  0  0  0
  2  3  1  0  0  0
  3  4  1  0  0  0
  3 18  1  0  0  0
  3 30  1  0  0  0
  4 12  1  0  0  0
  4  5  1  0  0  0
  4 31  1  0  0  0
  5  6  1  0  0  0
  6  7  1  0  0  0
  6 10  2  0  0  0
  7  8  1  0  0  0
  7  9  2  0  0  0
 10 11  1  0  0  0
 10 13  1  0  0  0
 11 12  1  0  0  0
 11 32  1  0  0  0
 11 33  1  0  0  0
 13 14  1  0  0  0
 13 34  1  0  0  0
 13 35  1  0  0  0
 14 15  1  0  0  0
 15 16  1  0  0  0
 15 17  2  0  0  0
 16 36  1  0  0  0
 16 37  1  0  0  0
 16 38  1  0  0  0
 18 19  1  0  0  0
 18 39  1  0  0  0
 19 20  1  0  0  0
 19 29  2  0  0  0
 20 21  1  0  0  0
 20 40  1  0  0  0
 20 41  1  0  0  0
 21 22  1  0  0  0
 22 28  1  0  0  0
 22 23  2  0  0  0
 23 24  1  0  0  0
 23 42  1  0  0  0
 24 25  2  0  0  0
 24 43  1  0  0  0
 25 26  1  0  0  0
 25 27  1  0  0  0
 26 44  1  0  0  0
 26 45  1  0  0  0
 26 46  1  0  0  0
 27 28  2  0  0  0
 27 47  1  0  0  0
 28 48  1  0  0  0
M  CHG  2   8  -1  25   1
M  END
> <s_m_entry_id>
27781

> <s_m_entry_name>
data_maestro.17

> <s_m_Source_Path>
C:\Users\olshana1\Git\GramNeg-Accumulation\Gram Negative Permeation - OmpF

> <s_m_Source_File>
data_maestro.csv

> <i_m_Source_File_Index>
17

> <s_m_job_name>
glide-dock_Nicaido_neutral

> <s_i_glide_gridfile>
3POX-grid

> <i_i_glide_lignum>
22

> <i_i_glide_rotatable_bonds>
9

> <r_i_docking_score>
-3.02496069641796

> <r_i_glide_ligand_efficiency>
-0.104308989531654

> <r_i_glide_ligand_efficiency_sa>
-0.320470263248683

> <r_i_glide_ligand_efficiency_ln>
-0.692639293094859

> <r_i_glide_gscore>
-3.02496069641796

> <r_i_glide_lipo>
0

> <r_i_glide_hbond>
-0.694282741511151

> <r_i_glide_metal>
0

> <r_i_glide_rewards>
2.40042776183858

> <r_i_glide_evdw>
-29.970365524292

> <r_i_glide_ecoul>
-23.240119934082

> <r_i_glide_erotb>
0.729326637690335

> <r_i_glide_esite>
-0.475896088108823

> <r_i_glide_emodel>
-59.1224022733945

> <r_i_glide_energy>
-53.210485458374

> <r_i_glide_einternal>
10.6381549835205

> <i_i_glide_confnum>
60

> <i_i_glide_posenum>
191

> <r_i_glide_eff_state_penalty>
0

> <r_glide_res:A132_vdw>
6.04286863988698

> <r_glide_res:A132_coul>
-41.7271541370656

> <r_glide_res:A132_hbond>
-0.364308222336883

> <r_glide_res:A132_dist>
1.52861644467377

> <r_glide_res:A132_Eint>
-36.0485937195155

> <r_glide_res:A117_vdw>
-5.99308390824738

> <r_glide_res:A117_coul>
-14.9685506840993

> <r_glide_res:A117_hbond>
-0.32

> <r_glide_res:A117_dist>
1.96280448609092

> <r_glide_res:A117_Eint>
-21.2816345923467

> <r_glide_res:A113_vdw>
-2.91396375683611

> <r_glide_res:A113_coul>
-16.636103942656

> <r_glide_res:A113_hbond>
0

> <r_glide_res:A113_dist>
2.28262802008446

> <r_glide_res:A113_Eint>
-19.5500676994921

> <r_glide_res:A82_vdw>
-1.18162265064136

> <r_glide_res:A82_coul>
-19.3140395183663

> <r_glide_res:A82_hbond>
0

> <r_glide_res:A82_dist>
2.8279462746683

> <r_glide_res:A82_Eint>
-20.4956621690077

> <r_glide_res:A42_vdw>
-1.47028729378783

> <r_glide_res:A42_coul>
-14.0619240218319

> <r_glide_res:A42_hbond>
-0.00997451917426734

> <r_glide_res:A42_dist>
2.46267550242252

> <r_glide_res:A42_Eint>
-15.542185834794

> <r_glide_res:A16_vdw>
-0.797114124102316

> <r_glide_res:A16_coul>
-0.142432318091535

> <r_glide_res:A16_hbond>
0

> <r_glide_res:A16_dist>
2.78696572390852

> <r_glide_res:A16_Eint>
-0.939546442193851

> <s_m_source_file>
ligprep_Nicaido_neutral.maegz

> <i_m_source_file_index>
17

> <i_lp_mmshare_version>
58128

> <i_f3d_flags>
0

> <s_lp_Force_Field>
S-OPLS

> <r_lp_Energy>
45.233938

> <b_lp_Chiralities_Consistent>
1

> <s_lp_Variant>
BL-S217-1

> <s_epik_input>
W0NIM11DKD1PKU9bQ0gyXUMoW0NIMl1TMSk9QyhDKD1PKVtPSF0pTihbQ0BASF0xMilDKD1PKVtDQEhdMltOSF1DKD1PKVtDSDJdU2MzW2NIXVtjSF1bbitdKFtDSDNdKVtjSF1bY0hdMw==

> <s_epik_cmdline>
J2VwaWtfcHl0aG9uJywgJy1waHQnLCAnMC4wJywgJy1waCcsICc3LjQnLCAnLW50JywgJy1tYScsICc1MDAnLCAnLWltYWUnLCAnPGluZmlsZS5tYWU+JywgJy1vbWFlJywgJzxvdXRmaWxlLm1hZT4n

> <r_lp_tautomer_probability>
1

> <r_epik_Ionization_Penalty>
  0.0000

> <r_epik_Ionization_Penalty_Charging>
  0.0000

> <r_epik_Ionization_Penalty_Neutral>
  0.0000

> <r_epik_State_Penalty>
  0.0000

> <r_epik_Charging_Adjusted_Penalty>
6.14912740637116e-06

> <i_epik_Tot_Q>
0

> <i_epik_Tot_abs_Q>
2

> <s_epik_Chemistry_Notes>
This compound has an ester and may undergo hydrolysis at high or low pH. This compound contains an acetal/aminal-like group ( X-CH(R)-Y where X, Y are N, S, or O) that may be acid/base labile, releasing an aldehyde.

> <s_m_subgroup_title>
glide-dock_Nicaido_neutral_pv1

> <s_m_subgroupid>
glide-dock_Nicaido_neutral_pv1

> <b_m_subgroup_collapsed>
0

$$$$
Piperacillin
                    3D
 Schrodinger Suite 2022-2.
 62 65  0  0  1  0            999 V2000
  -40.4483  -30.1576  -16.0853 C   0  0  0  0  0  0
  -38.9720  -30.2790  -16.4917 C   0  0  0  0  0  0
  -38.4849  -29.0461  -17.1204 N   0  0  0  0  0  0
  -37.7504  -28.1340  -16.2513 C   0  0  0  0  0  0
  -37.9919  -26.6770  -16.6695 C   0  0  0  0  0  0
  -37.7315  -26.4511  -18.1138 N   0  0  0  0  0  0
  -38.0864  -27.4418  -19.0019 C   0  0  0  0  0  0
  -38.6794  -28.7788  -18.4315 C   0  0  0  0  0  0
  -39.2842  -29.5383  -19.1921 O   0  0  0  0  0  0
  -37.9855  -27.3709  -20.2319 O   0  0  0  0  0  0
  -37.1687  -25.2398  -18.4419 C   0  0  0  0  0  0
  -36.7610  -25.0574  -19.7117 N   0  0  0  0  0  0
  -35.7821  -24.0679  -20.1689 C   0  0  2  0  0  0
  -36.4388  -22.9900  -20.9707 C   0  0  0  0  0  0
  -35.9713  -21.6583  -20.8705 C   0  0  0  0  0  0
  -36.5520  -20.6140  -21.6138 C   0  0  0  0  0  0
  -37.6281  -20.8805  -22.4777 C   0  0  0  0  0  0
  -38.1132  -22.1949  -22.5956 C   0  0  0  0  0  0
  -37.5233  -23.2343  -21.8503 C   0  0  0  0  0  0
  -34.7716  -24.7251  -21.1258 C   0  0  0  0  0  0
  -33.5553  -24.1672  -21.2174 N   0  0  0  0  0  0
  -32.5097  -24.6583  -22.1058 C   0  0  1  0  0  0
  -32.2165  -23.7003  -23.2703 C   0  0  2  0  0  0
  -30.8572  -23.5993  -22.7729 N   0  0  0  0  0  0
  -31.0824  -24.3446  -21.6426 C   0  0  0  0  0  0
  -30.3767  -24.5885  -20.6874 O   0  0  0  0  0  0
  -29.9889  -22.4840  -23.0733 C   0  0  2  0  0  0
  -30.9684  -21.2570  -23.0045 C   0  0  0  0  0  0
  -30.9917  -20.7010  -21.5681 C   0  0  0  0  0  0
  -32.6441  -21.9244  -23.3740 S   0  0  0  0  0  0
  -30.6282  -20.0931  -23.9595 C   0  0  0  0  0  0
  -29.2989  -22.7850  -24.4202 C   0  0  0  0  0  0
  -28.1008  -23.1493  -24.3915 O   0  5  0  0  0  0
  -29.9690  -22.7495  -25.4806 O   0  0  0  0  0  0
  -35.0947  -25.7220  -21.7762 O   0  0  0  0  0  0
  -36.9911  -24.3482  -17.6134 O   0  0  0  0  0  0
  -40.8009  -31.0791  -15.6221 H   0  0  0  0  0  0
  -40.5911  -29.3493  -15.3666 H   0  0  0  0  0  0
  -41.0858  -29.9568  -16.9477 H   0  0  0  0  0  0
  -38.8412  -31.1249  -17.1684 H   0  0  0  0  0  0
  -38.3701  -30.5155  -15.6135 H   0  0  0  0  0  0
  -38.0560  -28.2692  -15.2134 H   0  0  0  0  0  0
  -36.6880  -28.3765  -16.2998 H   0  0  0  0  0  0
  -37.3718  -26.0639  -16.0122 H   0  0  0  0  0  0
  -39.0250  -26.3957  -16.4568 H   0  0  0  0  0  0
  -36.9566  -25.8079  -20.3651 H   0  0  0  0  0  0
  -35.2393  -23.6442  -19.3219 H   0  0  0  0  0  0
  -35.1491  -21.4262  -20.2081 H   0  0  0  0  0  0
  -36.1740  -19.6074  -21.5074 H   0  0  0  0  0  0
  -38.0795  -20.0795  -23.0441 H   0  0  0  0  0  0
  -38.9391  -22.4082  -23.2581 H   0  0  0  0  0  0
  -37.9083  -24.2370  -21.9633 H   0  0  0  0  0  0
  -33.3416  -23.3654  -20.6405 H   0  0  0  0  0  0
  -32.6485  -25.6831  -22.4498 H   0  0  0  0  0  0
  -32.2811  -24.1788  -24.2487 H   0  0  0  0  0  0
  -29.2135  -22.3952  -22.3101 H   0  0  0  0  0  0
  -30.0235  -20.2890  -21.2822 H   0  0  0  0  0  0
  -31.2424  -21.4685  -20.8351 H   0  0  0  0  0  0
  -31.7274  -19.9041  -21.4574 H   0  0  0  0  0  0
  -29.6052  -19.7457  -23.8106 H   0  0  0  0  0  0
  -30.7404  -20.3690  -25.0068 H   0  0  0  0  0  0
  -31.2887  -19.2425  -23.7891 H   0  0  0  0  0  0
  1  2  1  0  0  0
  1 37  1  0  0  0
  1 38  1  0  0  0
  1 39  1  0  0  0
  2  3  1  0  0  0
  2 40  1  0  0  0
  2 41  1  0  0  0
  3  8  1  0  0  0
  3  4  1  0  0  0
  4  5  1  0  0  0
  4 42  1  0  0  0
  4 43  1  0  0  0
  5  6  1  0  0  0
  5 44  1  0  0  0
  5 45  1  0  0  0
  6  7  1  0  0  0
  6 11  1  0  0  0
  7  8  1  0  0  0
  7 10  2  0  0  0
  8  9  2  0  0  0
 11 12  1  0  0  0
 11 36  2  0  0  0
 12 13  1  0  0  0
 12 46  1  0  0  0
 13 14  1  0  0  0
 13 20  1  0  0  0
 13 47  1  0  0  0
 14 19  1  0  0  0
 14 15  2  0  0  0
 15 16  1  0  0  0
 15 48  1  0  0  0
 16 17  2  0  0  0
 16 49  1  0  0  0
 17 18  1  0  0  0
 17 50  1  0  0  0
 18 19  2  0  0  0
 18 51  1  0  0  0
 19 52  1  0  0  0
 20 21  1  0  0  0
 20 35  2  0  0  0
 21 22  1  0  0  0
 21 53  1  0  0  0
 22 25  1  0  0  0
 22 23  1  0  0  0
 22 54  1  0  0  0
 23 30  1  0  0  0
 23 24  1  0  0  0
 23 55  1  0  0  0
 24 25  1  0  0  0
 24 27  1  0  0  0
 25 26  2  0  0  0
 27 28  1  0  0  0
 27 32  1  0  0  0
 27 56  1  0  0  0
 28 29  1  0  0  0
 28 30  1  0  0  0
 28 31  1  0  0  0
 29 57  1  0  0  0
 29 58  1  0  0  0
 29 59  1  0  0  0
 31 60  1  0  0  0
 31 61  1  0  0  0
 31 62  1  0  0  0
 32 33  1  0  0  0
 32 34  2  0  0  0
M  CHG  1  33  -1
M  END
> <s_m_entry_id>
27782

> <s_m_entry_name>
data_maestro.11

> <s_m_Source_Path>
C:\Users\olshana1\Git\GramNeg-Accumulation\Gram Negative Permeation - OmpF

> <s_m_Source_File>
data_maestro.csv

> <i_m_Source_File_Index>
11

> <s_m_job_name>
glide-dock_Nicaido_neutral

> <s_i_glide_gridfile>
3POX-grid

> <i_i_glide_lignum>
15

> <i_i_glide_rotatable_bonds>
9

> <r_i_docking_score>
-2.88718815778672

> <r_i_glide_ligand_efficiency>
-0.080199671049631

> <r_i_glide_ligand_efficiency_sa>
-0.264813478874841

> <r_i_glide_ligand_efficiency_ln>
-0.629906453219373

> <r_i_glide_gscore>
-2.88718815778672

> <r_i_glide_lipo>
-0.152456850160326

> <r_i_glide_hbond>
-0.369150587833738

> <r_i_glide_metal>
0

> <r_i_glide_rewards>
-0.108983947378131

> <r_i_glide_evdw>
-26.9033641815186

> <r_i_glide_ecoul>
-6.81627798080444

> <r_i_glide_erotb>
0.461572583116075

> <r_i_glide_esite>
-0.350559449333999

> <r_i_glide_emodel>
-47.1477099414054

> <r_i_glide_energy>
-33.719642162323

> <r_i_glide_einternal>
4.74416875839233

> <i_i_glide_confnum>
38

> <i_i_glide_posenum>
143

> <r_i_glide_eff_state_penalty>
0

> <r_glide_res:A132_vdw>
-0.90443704957166

> <r_glide_res:A132_coul>
-27.9411006597613

> <r_glide_res:A132_hbond>
-0.0081309868362247

> <r_glide_res:A132_dist>
2.42314571351621

> <r_glide_res:A132_Eint>
-28.8536686961692

> <r_glide_res:A117_vdw>
-0.535514806950384

> <r_glide_res:A117_coul>
22.353834855905

> <r_glide_res:A117_hbond>
0

> <r_glide_res:A117_dist>
4.00156299103349

> <r_glide_res:A117_Eint>
21.8183200489546

> <r_glide_res:A113_vdw>
-3.82328780916669

> <r_glide_res:A113_coul>
19.3517166066297

> <r_glide_res:A113_hbond>
0

> <r_glide_res:A113_dist>
2.53850603076951

> <r_glide_res:A113_Eint>
15.528428797463

> <r_glide_res:A82_vdw>
-2.32392551662024

> <r_glide_res:A82_coul>
-37.7628123943953

> <r_glide_res:A82_hbond>
-0.0148998810632379

> <r_glide_res:A82_dist>
2.4178471592191

> <r_glide_res:A82_Eint>
-40.1016377920788

> <r_glide_res:A42_vdw>
1.06937364256071

> <r_glide_res:A42_coul>
-53.0701981645115

> <r_glide_res:A42_hbond>
-0.346119719934276

> <r_glide_res:A42_dist>
1.74142202435832

> <r_glide_res:A42_Eint>
-52.3469442418851

> <r_glide_res:A16_vdw>
-0.68111002615525

> <r_glide_res:A16_coul>
-35.3751505287405

> <r_glide_res:A16_hbond>
0

> <r_glide_res:A16_dist>
3.09717587359317

> <r_glide_res:A16_Eint>
-36.0562605548958

> <s_m_source_file>
ligprep_Nicaido_neutral.maegz

> <i_m_source_file_index>
11

> <i_lp_mmshare_version>
58128

> <i_f3d_flags>
0

> <s_lp_Force_Field>
S-OPLS

> <r_lp_Energy>
67.572455

> <b_lp_Chiralities_Consistent>
1

> <s_lp_Variant>
Piperacillin-1

> <s_epik_input>
W0NIM11bQ0gyXU4xW0NIMl1bQ0gyXU4oQyg9TylDMT1PKUMoPU8pW05IXVtDQEhdKGMyW2NIXVtjSF1bY0hdW2NIXVtjSF0yKUMoPU8pW05IXVtDQEBIXTNDKD1PKU4oW0NAQEhdMzQpW0NASF0oQyhTNCkoW0NIM10pW0NIM10pQyg9TylbT0hd

> <s_epik_cmdline>
J2VwaWtfcHl0aG9uJywgJy1waHQnLCAnMC4wJywgJy1waCcsICc3LjQnLCAnLW50JywgJy1tYScsICc1MDAnLCAnLWltYWUnLCAnPGluZmlsZS5tYWU+JywgJy1vbWFlJywgJzxvdXRmaWxlLm1hZT4n

> <r_lp_tautomer_probability>
1

> <r_epik_Ionization_Penalty>
  0.0049

> <r_epik_Ionization_Penalty_Charging>
  0.0000

> <r_epik_Ionization_Penalty_Neutral>
  0.0049

> <r_epik_State_Penalty>
  0.0000

> <r_epik_Charging_Adjusted_Penalty>
1.13204004886318e-05

> <i_epik_Tot_Q>
-1

> <i_epik_Tot_abs_Q>
1

> <s_epik_Chemistry_Notes>
This compound contains an acetal/aminal-like group ( X-CH(R)-Y where X, Y are N, S, or O) that may be acid/base labile, releasing an aldehyde.

> <s_m_subgroup_title>
glide-dock_Nicaido_neutral_pv1

> <s_m_subgroupid>
glide-dock_Nicaido_neutral_pv1

> <b_m_subgroup_collapsed>
0

$$$$
Cephalosporin C
                    3D
 Schrodinger Suite 2022-2.
 45 46  0  0  1  0            999 V2000
  -19.3495  -24.3491  -15.6143 O   0  0  0  0  0  0
  -19.8590  -23.6657  -16.5022 C   0  0  0  0  0  0
  -21.1197  -23.2145  -16.4950 O   0  0  0  0  0  0
  -21.5781  -22.5230  -17.6449 C   0  0  0  0  0  0
  -23.0918  -22.3479  -17.6583 C   0  0  0  0  0  0
  -23.9460  -23.3381  -18.0334 C   0  0  0  0  0  0
  -25.3361  -23.1312  -18.1197 N   0  0  0  0  0  0
  -26.0124  -22.0272  -17.4689 C   0  0  2  0  0  0
  -27.3368  -22.5487  -18.0678 C   0  0  2  0  0  0
  -26.4859  -23.7227  -18.6049 C   0  0  0  0  0  0
  -26.6866  -24.7497  -19.2128 O   0  0  0  0  0  0
  -27.9425  -21.6431  -19.0559 N   0  0  0  0  0  0
  -28.4868  -21.9472  -20.2492 C   0  0  0  0  0  0
  -29.4378  -20.8927  -20.8142 C   0  0  0  0  0  0
  -29.5548  -20.8356  -22.3506 C   0  0  0  0  0  0
  -28.3900  -20.0943  -23.0298 C   0  0  0  0  0  0
  -28.6428  -19.7452  -24.5193 C   0  0  2  0  0  0
  -28.7385  -20.9862  -25.4391 C   0  0  0  0  0  0
  -27.9691  -21.9494  -25.2134 O   0  5  0  0  0  0
  -29.5653  -20.9609  -26.3851 O   0  0  0  0  0  0
  -27.5697  -18.8574  -25.0060 N   0  3  0  0  0  0
  -28.3165  -23.0094  -20.8502 O   0  0  0  0  0  0
  -25.1731  -20.4915  -17.9475 S   0  0  0  0  0  0
  -23.5459  -20.9369  -17.2803 C   0  0  0  0  0  0
  -23.4298  -24.7572  -18.4678 C   0  0  0  0  0  0
  -23.7354  -25.1471  -19.6182 O   0  5  0  0  0  0
  -22.7684  -25.3921  -17.6133 O   0  0  0  0  0  0
  -19.3448  -23.3559  -17.4147 H   0  0  0  0  0  0
  -21.2882  -23.0692  -18.5446 H   0  0  0  0  0  0
  -21.0856  -21.5522  -17.7052 H   0  0  0  0  0  0
  -25.9682  -22.1724  -16.3914 H   0  0  0  0  0  0
  -28.0394  -22.8331  -17.2826 H   0  0  0  0  0  0
  -28.1681  -20.7233  -18.7001 H   0  0  0  0  0  0
  -29.1752  -19.9099  -20.4164 H   0  0  0  0  0  0
  -30.4183  -21.1495  -20.4139 H   0  0  0  0  0  0
  -30.4834  -20.3162  -22.5883 H   0  0  0  0  0  0
  -29.6637  -21.8380  -22.7673 H   0  0  0  0  0  0
  -27.4690  -20.6668  -22.9102 H   0  0  0  0  0  0
  -28.2238  -19.1597  -22.4892 H   0  0  0  0  0  0
  -29.5752  -19.1806  -24.5888 H   0  0  0  0  0  0
  -27.7953  -18.5118  -25.9267 H   0  0  0  0  0  0
  -27.4661  -18.0725  -24.3755 H   0  0  0  0  0  0
  -23.5668  -20.8571  -16.1932 H   0  0  0  0  0  0
  -22.8335  -20.1975  -17.6475 H   0  0  0  0  0  0
  -26.7002  -19.3686  -25.0424 H   0  0  0  0  0  0
  1  2  2  0  0  0
  2  3  1  0  0  0
  2 28  1  0  0  0
  3  4  1  0  0  0
  4  5  1  0  0  0
  4 29  1  0  0  0
  4 30  1  0  0  0
  5 24  1  0  0  0
  5  6  2  0  0  0
  6  7  1  0  0  0
  6 25  1  0  0  0
  7 10  1  0  0  0
  7  8  1  0  0  0
  8  9  1  0  0  0
  8 23  1  0  0  0
  8 31  1  0  0  0
  9 10  1  0  0  0
  9 12  1  0  0  0
  9 32  1  0  0  0
 10 11  2  0  0  0
 12 13  1  0  0  0
 12 33  1  0  0  0
 13 14  1  0  0  0
 13 22  2  0  0  0
 14 15  1  0  0  0
 14 34  1  0  0  0
 14 35  1  0  0  0
 15 16  1  0  0  0
 15 36  1  0  0  0
 15 37  1  0  0  0
 16 17  1  0  0  0
 16 38  1  0  0  0
 16 39  1  0  0  0
 17 18  1  0  0  0
 17 21  1  0  0  0
 17 40  1  0  0  0
 18 19  1  0  0  0
 18 20  2  0  0  0
 21 41  1  0  0  0
 21 42  1  0  0  0
 21 45  1  0  0  0
 23 24  1  0  0  0
 24 43  1  0  0  0
 24 44  1  0  0  0
 25 26  1  0  0  0
 25 27  2  0  0  0
M  CHG  3  19  -1  21   1  26  -1
M  END
> <s_m_entry_id>
27783

> <s_m_entry_name>
data_maestro.25

> <s_m_Source_Path>
C:\Users\olshana1\Git\GramNeg-Accumulation\Gram Negative Permeation - OmpF

> <s_m_Source_File>
data_maestro.csv

> <i_m_Source_File_Index>
25

> <s_m_job_name>
glide-dock_Nicaido_neutral

> <s_i_glide_gridfile>
3POX-grid

> <i_i_glide_lignum>
32

> <i_i_glide_rotatable_bonds>
11

> <r_i_docking_score>
-2.83540395924882

> <r_i_glide_ligand_efficiency>
-0.10501496145366

> <r_i_glide_ligand_efficiency_sa>
-0.315044884014868

> <r_i_glide_ligand_efficiency_ln>
-0.660035296425514

> <r_i_glide_gscore>
-2.83540395924882

> <r_i_glide_lipo>
0

> <r_i_glide_hbond>
-0.873607697955742

> <r_i_glide_metal>
0

> <r_i_glide_rewards>
2.1799673492575

> <r_i_glide_evdw>
-22.4719085693359

> <r_i_glide_ecoul>
-22.5068073272705

> <r_i_glide_erotb>
0.97830559423054

> <r_i_glide_esite>
-0.620452677223739

> <r_i_glide_emodel>
-49.4162103074607

> <r_i_glide_energy>
-44.9787158966064

> <r_i_glide_einternal>
11.820086479187

> <i_i_glide_confnum>
265

> <i_i_glide_posenum>
284

> <r_i_glide_eff_state_penalty>
0

> <r_glide_res:A132_vdw>
-0.671825651322389

> <r_glide_res:A132_coul>
-49.7594625701432

> <r_glide_res:A132_hbond>
-0.141795351944681

> <r_glide_res:A132_dist>
2.08953131669095

> <r_glide_res:A132_Eint>
-50.5730835734102

> <r_glide_res:A117_vdw>
-2.23065567211338

> <r_glide_res:A117_coul>
-10.9769587370133

> <r_glide_res:A117_hbond>
0

> <r_glide_res:A117_dist>
2.25396181392575

> <r_glide_res:A117_Eint>
-13.2076144091267

> <r_glide_res:A113_vdw>
-2.14598804534956

> <r_glide_res:A113_coul>
11.2534335478153

> <r_glide_res:A113_hbond>
0

> <r_glide_res:A113_dist>
2.21856034000754

> <r_glide_res:A113_Eint>
9.10744550246578

> <r_glide_res:A82_vdw>
-0.947767551932234

> <r_glide_res:A82_coul>
-36.0994986249944

> <r_glide_res:A82_hbond>
0

> <r_glide_res:A82_dist>
3.74615035532771

> <r_glide_res:A82_Eint>
-37.0472661769266

> <r_glide_res:A42_vdw>
1.17988322102902

> <r_glide_res:A42_coul>
-42.6787274838602

> <r_glide_res:A42_hbond>
-0.211812346011061

> <r_glide_res:A42_dist>
1.80611754146173

> <r_glide_res:A42_Eint>
-41.7106566088422

> <r_glide_res:A16_vdw>
0.582538625776752

> <r_glide_res:A16_coul>
-33.0243973493901

> <r_glide_res:A16_hbond>
-0.2

> <r_glide_res:A16_dist>
1.89135861055324

> <r_glide_res:A16_Eint>
-32.6418587236133

> <s_m_source_file>
ligprep_Nicaido_neutral.maegz

> <i_m_source_file_index>
25

> <i_lp_mmshare_version>
58128

> <i_f3d_flags>
0

> <s_lp_Force_Field>
S-OPLS

> <r_lp_Energy>
27.061927

> <b_lp_Chiralities_Consistent>
1

> <s_lp_Variant>
Cephalosporin C-1

> <s_epik_input>
Tz1bQ0hdT1tDSDJdQyg9QzFDKD1PKVtPSF0pW0NIMl1TW0NASF0oTjEyKVtDQEhdKEMyPU8pW05IXUMoPU8pW0NIMl1bQ0gyXVtDSDJdW0NAQEhdKFtOSDJdKUMoPU8pW09IXQ==

> <s_epik_cmdline>
J2VwaWtfcHl0aG9uJywgJy1waHQnLCAnMC4wJywgJy1waCcsICc3LjQnLCAnLW50JywgJy1tYScsICc1MDAnLCAnLWltYWUnLCAnPGluZmlsZS5tYWU+JywgJy1vbWFlJywgJzxvdXRmaWxlLm1hZT4n

> <r_lp_tautomer_probability>
1

> <r_epik_Ionization_Penalty>
  0.0034

> <r_epik_Ionization_Penalty_Charging>
  0.0034

> <r_epik_Ionization_Penalty_Neutral>
  0.0000

> <r_epik_State_Penalty>
  0.0000

> <r_epik_Charging_Adjusted_Penalty>
0.00339038450865705

> <i_epik_Tot_Q>
-1

> <i_epik_Tot_abs_Q>
3

> <s_epik_Chemistry_Notes>
This compound has an ester and may undergo hydrolysis at high or low pH. This compound contains an acetal/aminal-like group ( X-CH(R)-Y where X, Y are N, S, or O) that may be acid/base labile, releasing an aldehyde.

> <s_m_subgroup_title>
glide-dock_Nicaido_neutral_pv1

> <s_m_subgroupid>
glide-dock_Nicaido_neutral_pv1

> <b_m_subgroup_collapsed>
0

$$$$
Cefoxitin
                    3D
 Schrodinger Suite 2022-2.
 44 46  0  0  1  0            999 V2000
  -34.1217  -19.8722  -25.5409 C   0  0  0  0  0  0
  -32.7922  -20.3634  -25.6683 O   0  0  0  0  0  0
  -32.5948  -21.7345  -25.3070 C   0  0  2  0  0  0
  -32.3550  -21.9904  -23.8014 C   0  0  1  0  0  0
  -30.9375  -22.1239  -24.1091 N   0  0  0  0  0  0
  -31.1095  -22.1220  -25.4832 C   0  0  0  0  0  0
  -30.3693  -22.3495  -26.4148 O   0  0  0  0  0  0
  -29.9592  -22.3628  -23.1166 C   0  0  0  0  0  0
  -28.6091  -23.0601  -23.5728 C   0  0  0  0  0  0
  -28.1498  -23.9495  -22.8143 O   0  5  0  0  0  0
  -28.1396  -22.7496  -24.6919 O   0  0  0  0  0  0
  -30.1440  -21.9389  -21.8358 C   0  0  0  0  0  0
  -31.3979  -21.2312  -21.3285 C   0  0  0  0  0  0
  -32.5647  -20.6653  -22.5853 S   0  0  0  0  0  0
  -29.0721  -22.0175  -20.7534 C   0  0  0  0  0  0
  -29.0017  -23.3014  -20.1398 O   0  0  0  0  0  0
  -28.1129  -23.4988  -19.1567 C   0  0  0  0  0  0
  -28.3689  -22.6656  -18.0903 N   0  0  0  0  0  0
  -27.2286  -24.3495  -19.2140 O   0  0  0  0  0  0
  -33.5093  -22.6914  -25.9468 N   0  0  0  0  0  0
  -33.6682  -22.8099  -27.2778 C   0  0  0  0  0  0
  -34.4876  -23.9989  -27.7880 C   0  0  0  0  0  0
  -34.0030  -24.4662  -29.1290 C   0  0  0  0  0  0
  -34.4953  -24.1257  -30.3653 C   0  0  0  0  0  0
  -33.7957  -24.7489  -31.4402 C   0  0  0  0  0  0
  -32.7690  -25.5490  -31.0122 C   0  0  0  0  0  0
  -32.6466  -25.5599  -29.2734 S   0  0  0  0  0  0
  -33.1697  -22.0155  -28.0757 O   0  0  0  0  0  0
  -34.1226  -18.7932  -25.6967 H   0  0  0  0  0  0
  -34.7862  -20.3083  -26.2862 H   0  0  0  0  0  0
  -34.5397  -20.0680  -24.5536 H   0  0  0  0  0  0
  -32.7685  -22.9343  -23.4379 H   0  0  0  0  0  0
  -31.9130  -21.8674  -20.6084 H   0  0  0  0  0  0
  -31.0920  -20.3240  -20.8137 H   0  0  0  0  0  0
  -28.1023  -21.7881  -21.1981 H   0  0  0  0  0  0
  -29.2526  -21.2382  -20.0121 H   0  0  0  0  0  0
  -29.2537  -22.1527  -18.1021 H   0  0  0  0  0  0
  -27.7735  -22.7213  -17.2770 H   0  0  0  0  0  0
  -33.9710  -23.3580  -25.3460 H   0  0  0  0  0  0
  -35.5343  -23.6983  -27.8517 H   0  0  0  0  0  0
  -34.4375  -24.8192  -27.0706 H   0  0  0  0  0  0
  -35.3252  -23.4547  -30.5361 H   0  0  0  0  0  0
  -34.0664  -24.5888  -32.4745 H   0  0  0  0  0  0
  -32.0875  -26.1342  -31.6099 H   0  0  0  0  0  0
  1  2  1  0  0  0
  1 29  1  0  0  0
  1 30  1  0  0  0
  1 31  1  0  0  0
  2  3  1  0  0  0
  3  6  1  0  0  0
  3  4  1  0  0  0
  3 20  1  0  0  0
  4 14  1  0  0  0
  4  5  1  0  0  0
  4 32  1  0  0  0
  5  6  1  0  0  0
  5  8  1  0  0  0
  6  7  2  0  0  0
  8  9  1  0  0  0
  8 12  2  0  0  0
  9 10  1  0  0  0
  9 11  2  0  0  0
 12 13  1  0  0  0
 12 15  1  0  0  0
 13 14  1  0  0  0
 13 33  1  0  0  0
 13 34  1  0  0  0
 15 16  1  0  0  0
 15 35  1  0  0  0
 15 36  1  0  0  0
 16 17  1  0  0  0
 17 18  1  0  0  0
 17 19  2  0  0  0
 18 37  1  0  0  0
 18 38  1  0  0  0
 20 21  1  0  0  0
 20 39  1  0  0  0
 21 22  1  0  0  0
 21 28  2  0  0  0
 22 23  1  0  0  0
 22 40  1  0  0  0
 22 41  1  0  0  0
 23 27  1  0  0  0
 23 24  2  0  0  0
 24 25  1  0  0  0
 24 42  1  0  0  0
 25 26  2  0  0  0
 25 43  1  0  0  0
 26 27  1  0  0  0
 26 44  1  0  0  0
M  CHG  1  10  -1
M  END
> <s_m_entry_id>
27784

> <s_m_entry_name>
data_maestro.4

> <s_m_Source_Path>
C:\Users\olshana1\Git\GramNeg-Accumulation\Gram Negative Permeation - OmpF

> <s_m_Source_File>
data_maestro.csv

> <i_m_Source_File_Index>
4

> <s_m_job_name>
glide-dock_Nicaido_neutral

> <s_i_glide_gridfile>
3POX-grid

> <i_i_glide_lignum>
4

> <i_i_glide_rotatable_bonds>
9

> <r_i_docking_score>
-2.81837863679161

> <r_i_glide_ligand_efficiency>
-0.100656379885415

> <r_i_glide_ligand_efficiency_sa>
-0.305652052769479

> <r_i_glide_ligand_efficiency_ln>
-0.650564540564045

> <r_i_glide_gscore>
-2.81837863679161

> <r_i_glide_lipo>
-0.547147480649836

> <r_i_glide_hbond>
-1.20964101128385

> <r_i_glide_metal>
0

> <r_i_glide_rewards>
2.86657824181118

> <r_i_glide_evdw>
-25.4085083007813

> <r_i_glide_ecoul>
-17.9511127471924

> <r_i_glide_erotb>
0.545654768997296

> <r_i_glide_esite>
-0.510730828548481

> <r_i_glide_emodel>
-43.0888701174923

> <r_i_glide_energy>
-43.3596210479736

> <r_i_glide_einternal>
11.6847705841064

> <i_i_glide_confnum>
33

> <i_i_glide_posenum>
172

> <r_i_glide_eff_state_penalty>
0

> <r_glide_res:A132_vdw>
-1.73607182307354

> <r_glide_res:A132_coul>
-40.0671599647055

> <r_glide_res:A132_hbond>
-0.125577213954566

> <r_glide_res:A132_dist>
2.11479538774621

> <r_glide_res:A132_Eint>
-41.9288090017336

> <r_glide_res:A117_vdw>
-0.529266795190092

> <r_glide_res:A117_coul>
25.7117969990759

> <r_glide_res:A117_hbond>
0

> <r_glide_res:A117_dist>
5.28601851839404

> <r_glide_res:A117_Eint>
25.1825302038858

> <r_glide_res:A113_vdw>
-2.56814339071153

> <r_glide_res:A113_coul>
10.8568231908886

> <r_glide_res:A113_hbond>
-0.16

> <r_glide_res:A113_dist>
1.99942890929133

> <r_glide_res:A113_Eint>
8.12867980017703

> <r_glide_res:A82_vdw>
-0.365884874141821

> <r_glide_res:A82_coul>
-48.7301909297838

> <r_glide_res:A82_hbond>
-0.269381241686442

> <r_glide_res:A82_dist>
1.82557678025325

> <r_glide_res:A82_Eint>
-49.3654570456121

> <r_glide_res:A42_vdw>
-1.30197320704965

> <r_glide_res:A42_coul>
-52.8897584534111

> <r_glide_res:A42_hbond>
-0.374776339009695

> <r_glide_res:A42_dist>
1.94820590258607

> <r_glide_res:A42_Eint>
-54.5665079994705

> <r_glide_res:A16_vdw>
-3.17838477060534

> <r_glide_res:A16_coul>
-47.7836475578522

> <r_glide_res:A16_hbond>
-0.27990621663315

> <r_glide_res:A16_dist>
1.8357018203933

> <r_glide_res:A16_Eint>
-51.2419385450907

> <s_m_source_file>
ligprep_Nicaido_neutral.maegz

> <i_m_source_file_index>
4

> <i_lp_mmshare_version>
58128

> <i_f3d_flags>
0

> <s_lp_Force_Field>
S-OPLS

> <r_lp_Energy>
27.517474

> <b_lp_Chiralities_Consistent>
1

> <s_lp_Variant>
Cefoxitin-1

> <s_epik_input>
czFbY0hdW2NIXVtjSF1jMVtDSDJdQyg9TylbTkhdW0NAXTIoT1tDSDNdKUMoPU8pTihbQ0BIXTIzKUMoQyg9TylbT0hdKT1DKFtDSDJdUzMpW0NIMl1PQyg9TylbTkgyXQ==

> <s_epik_cmdline>
J2VwaWtfcHl0aG9uJywgJy1waHQnLCAnMC4wJywgJy1waCcsICc3LjQnLCAnLW50JywgJy1tYScsICc1MDAnLCAnLWltYWUnLCAnPGluZmlsZS5tYWU+JywgJy1vbWFlJywgJzxvdXRmaWxlLm1hZT4n

> <r_lp_tautomer_probability>
1

> <r_epik_Ionization_Penalty>
  0.0000

> <r_epik_Ionization_Penalty_Charging>
  0.0000

> <r_epik_Ionization_Penalty_Neutral>
  0.0000

> <r_epik_State_Penalty>
  0.0000

> <r_epik_Charging_Adjusted_Penalty>
8.89144247208744e-06

> <i_epik_Tot_Q>
-1

> <i_epik_Tot_abs_Q>
1

> <s_epik_Chemistry_Notes>
This compound has an ester and may undergo hydrolysis at high or low pH. This compound contains an acetal/aminal-like group ( X-CH(R)-Y where X, Y are N, S, or O) that may be acid/base labile, releasing an aldehyde.

> <s_m_subgroup_title>
glide-dock_Nicaido_neutral_pv1

> <s_m_subgroupid>
glide-dock_Nicaido_neutral_pv1

> <b_m_subgroup_collapsed>
0

$$$$
BL-S217
                    3D
 Schrodinger Suite 2022-2.
 48 50  0  0  1  0            999 V2000
  -26.3823  -22.3269  -24.0121 O   0  0  0  0  0  0
  -26.0127  -21.4926  -23.2103 C   0  0  0  0  0  0
  -25.4627  -20.0441  -23.2637 C   0  0  2  0  0  0
  -25.7847  -19.9953  -21.7635 C   0  0  1  0  0  0
  -26.0090  -21.4283  -21.8263 N   0  0  0  0  0  0
  -26.3916  -22.1716  -20.6925 C   0  0  0  0  0  0
  -27.1102  -23.5494  -20.9881 C   0  0  0  0  0  0
  -27.9690  -23.9492  -20.1773 O   0  5  0  0  0  0
  -26.7542  -24.2011  -21.9979 O   0  0  0  0  0  0
  -26.0733  -21.7470  -19.4341 C   0  0  0  0  0  0
  -25.3895  -20.4130  -19.1276 C   0  0  0  0  0  0
  -24.5075  -19.6799  -20.5248 S   0  0  0  0  0  0
  -26.3431  -22.5495  -18.1656 C   0  0  0  0  0  0
  -25.4249  -23.6396  -18.0833 O   0  0  0  0  0  0
  -24.3680  -23.6870  -17.2354 C   0  0  0  0  0  0
  -24.3017  -22.6255  -16.1352 C   0  0  0  0  0  0
  -23.5127  -24.5714  -17.2919 O   0  0  0  0  0  0
  -26.3330  -19.1500  -24.0136 N   0  0  0  0  0  0
  -26.6788  -19.3684  -25.2869 C   0  0  0  0  0  0
  -27.9436  -18.6805  -25.7831 C   0  0  0  0  0  0
  -29.3924  -19.7743  -25.6689 S   0  0  0  0  0  0
  -30.1476  -19.3506  -24.1363 C   0  0  0  0  0  0
  -29.4923  -19.5860  -22.9105 C   0  0  0  0  0  0
  -30.0888  -19.1369  -21.7137 C   0  0  0  0  0  0
  -31.2931  -18.5174  -21.7464 N   0  3  0  0  0  0
  -31.8786  -18.0082  -20.5062 C   0  0  0  0  0  0
  -31.9768  -18.3500  -22.9064 C   0  0  0  0  0  0
  -31.4136  -18.7418  -24.1350 C   0  0  0  0  0  0
  -26.0703  -20.1523  -26.0133 O   0  0  0  0  0  0
  -24.4004  -19.9434  -23.4891 H   0  0  0  0  0  0
  -26.7052  -19.4598  -21.5190 H   0  0  0  0  0  0
  -26.1451  -19.7108  -18.7745 H   0  0  0  0  0  0
  -24.6665  -20.5330  -18.3240 H   0  0  0  0  0  0
  -26.3155  -21.8870  -17.3015 H   0  0  0  0  0  0
  -27.3574  -22.9419  -18.1673 H   0  0  0  0  0  0
  -23.4922  -22.8516  -15.4409 H   0  0  0  0  0  0
  -24.1166  -21.6367  -16.5494 H   0  0  0  0  0  0
  -25.2295  -22.6017  -15.5632 H   0  0  0  0  0  0
  -26.7778  -18.3936  -23.5039 H   0  0  0  0  0  0
  -27.8049  -18.3516  -26.8130 H   0  0  0  0  0  0
  -28.1230  -17.7788  -25.2045 H   0  0  0  0  0  0
  -28.5404  -20.0882  -22.8805 H   0  0  0  0  0  0
  -29.6338  -19.2522  -20.7397 H   0  0  0  0  0  0
  -31.0914  -17.5910  -19.8766 H   0  0  0  0  0  0
  -32.6033  -17.2359  -20.7516 H   0  0  0  0  0  0
  -32.3689  -18.8446  -20.0154 H   0  0  0  0  0  0
  -32.9317  -17.8494  -22.8376 H   0  0  0  0  0  0
  -31.9351  -18.5488  -25.0608 H   0  0  0  0  0  0
  1  2  2  0  0  0
  2  5  1  0  0  0
  2  3  1  0  0  0
  3  4  1  0  0  0
  3 18  1  0  0  0
  3 30  1  0  0  0
  4 12  1  0  0  0
  4  5  1  0  0  0
  4 31  1  0  0  0
  5  6  1  0  0  0
  6  7  1  0  0  0
  6 10  2  0  0  0
  7  8  1  0  0  0
  7  9  2  0  0  0
 10 11  1  0  0  0
 10 13  1  0  0  0
 11 12  1  0  0  0
 11 32  1  0  0  0
 11 33  1  0  0  0
 13 14  1  0  0  0
 13 34  1  0  0  0
 13 35  1  0  0  0
 14 15  1  0  0  0
 15 16  1  0  0  0
 15 17  2  0  0  0
 16 36  1  0  0  0
 16 37  1  0  0  0
 16 38  1  0  0  0
 18 19  1  0  0  0
 18 39  1  0  0  0
 19 20  1  0  0  0
 19 29  2  0  0  0
 20 21  1  0  0  0
 20 40  1  0  0  0
 20 41  1  0  0  0
 21 22  1  0  0  0
 22 28  1  0  0  0
 22 23  2  0  0  0
 23 24  1  0  0  0
 23 42  1  0  0  0
 24 25  2  0  0  0
 24 43  1  0  0  0
 25 26  1  0  0  0
 25 27  1  0  0  0
 26 44  1  0  0  0
 26 45  1  0  0  0
 26 46  1  0  0  0
 27 28  2  0  0  0
 27 47  1  0  0  0
 28 48  1  0  0  0
M  CHG  2   8  -1  25   1
M  END
> <s_m_entry_id>
27785

> <s_m_entry_name>
data_maestro.17

> <s_m_Source_Path>
C:\Users\olshana1\Git\GramNeg-Accumulation\Gram Negative Permeation - OmpF

> <s_m_Source_File>
data_maestro.csv

> <i_m_Source_File_Index>
17

> <s_m_job_name>
glide-dock_Nicaido_neutral

> <s_i_glide_gridfile>
3POX-grid

> <i_i_glide_lignum>
22

> <i_i_glide_rotatable_bonds>
9

> <r_i_docking_score>
-2.81309870339444

> <r_i_glide_ligand_efficiency>
-0.0970034035653255

> <r_i_glide_ligand_efficiency_sa>
-0.298025188588031

> <r_i_glide_ligand_efficiency_ln>
-0.644128269049077

> <r_i_glide_gscore>
-2.81309870339444

> <r_i_glide_lipo>
0

> <r_i_glide_hbond>
-0.959926380823978

> <r_i_glide_metal>
0

> <r_i_glide_rewards>
2.49557853184005

> <r_i_glide_evdw>
-27.6379928588867

> <r_i_glide_ecoul>
-21.2782001495361

> <r_i_glide_erotb>
0.729326637690335

> <r_i_glide_esite>
-0.50444782672609

> <r_i_glide_emodel>
-51.8867916404313

> <r_i_glide_energy>
-48.9161930084229

> <r_i_glide_einternal>
13.2726211547852

> <i_i_glide_confnum>
139

> <i_i_glide_posenum>
166

> <r_i_glide_eff_state_penalty>
0

> <r_glide_res:A132_vdw>
1.17203104311127

> <r_glide_res:A132_coul>
-35.7572260572097

> <r_glide_res:A132_hbond>
-0.310232347730302

> <r_glide_res:A132_dist>
1.79725894893813

> <r_glide_res:A132_Eint>
-34.8954273618288

> <r_glide_res:A117_vdw>
-5.59190508062225

> <r_glide_res:A117_coul>
-13.2676380608443

> <r_glide_res:A117_hbond>
-0.32

> <r_glide_res:A117_dist>
1.95619734129193

> <r_glide_res:A117_Eint>
-19.1795431414665

> <r_glide_res:A113_vdw>
-2.08884381840305

> <r_glide_res:A113_coul>
-16.7605700405111

> <r_glide_res:A113_hbond>
0

> <r_glide_res:A113_dist>
2.26065471962373

> <r_glide_res:A113_Eint>
-18.8494138589142

> <r_glide_res:A82_vdw>
-1.08268541343365

> <r_glide_res:A82_coul>
-27.9536907875065

> <r_glide_res:A82_hbond>
-0.2

> <r_glide_res:A82_dist>
2.00742903452464

> <r_glide_res:A82_Eint>
-29.2363762009402

> <r_glide_res:A42_vdw>
-1.53889739114207

> <r_glide_res:A42_coul>
-18.0812960669526

> <r_glide_res:A42_hbond>
-0.0662111082144245

> <r_glide_res:A42_dist>
2.29311712385144

> <r_glide_res:A42_Eint>
-19.6864045663091

> <r_glide_res:A16_vdw>
-0.792037553241865

> <r_glide_res:A16_coul>
-1.85295974979054

> <r_glide_res:A16_hbond>
0

> <r_glide_res:A16_dist>
2.95607374651686

> <r_glide_res:A16_Eint>
-2.64499730303241

> <s_m_source_file>
ligprep_Nicaido_neutral.maegz

> <i_m_source_file_index>
17

> <i_lp_mmshare_version>
58128

> <i_f3d_flags>
0

> <s_lp_Force_Field>
S-OPLS

> <r_lp_Energy>
45.233938

> <b_lp_Chiralities_Consistent>
1

> <s_lp_Variant>
BL-S217-1

> <s_epik_input>
W0NIM11DKD1PKU9bQ0gyXUMoW0NIMl1TMSk9QyhDKD1PKVtPSF0pTihbQ0BASF0xMilDKD1PKVtDQEhdMltOSF1DKD1PKVtDSDJdU2MzW2NIXVtjSF1bbitdKFtDSDNdKVtjSF1bY0hdMw==

> <s_epik_cmdline>
J2VwaWtfcHl0aG9uJywgJy1waHQnLCAnMC4wJywgJy1waCcsICc3LjQnLCAnLW50JywgJy1tYScsICc1MDAnLCAnLWltYWUnLCAnPGluZmlsZS5tYWU+JywgJy1vbWFlJywgJzxvdXRmaWxlLm1hZT4n

> <r_lp_tautomer_probability>
1

> <r_epik_Ionization_Penalty>
  0.0000

> <r_epik_Ionization_Penalty_Charging>
  0.0000

> <r_epik_Ionization_Penalty_Neutral>
  0.0000

> <r_epik_State_Penalty>
  0.0000

> <r_epik_Charging_Adjusted_Penalty>
6.14912740637116e-06

> <i_epik_Tot_Q>
0

> <i_epik_Tot_abs_Q>
2

> <s_epik_Chemistry_Notes>
This compound has an ester and may undergo hydrolysis at high or low pH. This compound contains an acetal/aminal-like group ( X-CH(R)-Y where X, Y are N, S, or O) that may be acid/base labile, releasing an aldehyde.

> <s_m_subgroup_title>
glide-dock_Nicaido_neutral_pv1

> <s_m_subgroupid>
glide-dock_Nicaido_neutral_pv1

> <b_m_subgroup_collapsed>
0

$$$$
BL-S217
                    3D
 Schrodinger Suite 2022-2.
 48 50  0  0  1  0            999 V2000
  -25.3665  -22.3495  -24.3705 O   0  0  0  0  0  0
  -25.4943  -21.4334  -23.5846 C   0  0  0  0  0  0
  -25.3653  -19.8918  -23.6330 C   0  0  2  0  0  0
  -26.0267  -19.9027  -22.2427 C   0  0  1  0  0  0
  -25.9119  -21.3483  -22.2593 N   0  0  0  0  0  0
  -26.4686  -22.1181  -21.2179 C   0  0  0  0  0  0
  -26.9819  -23.5496  -21.6130 C   0  0  0  0  0  0
  -28.0391  -23.9494  -21.0806 O   0  5  0  0  0  0
  -26.2927  -24.2192  -22.4132 O   0  0  0  0  0  0
  -26.5250  -21.6509  -19.9363 C   0  0  0  0  0  0
  -26.1412  -20.2235  -19.5330 C   0  0  0  0  0  0
  -25.1656  -19.3103  -20.7604 S   0  0  0  0  0  0
  -27.0356  -22.4756  -18.7497 C   0  0  0  0  0  0
  -26.3846  -23.7461  -18.6288 O   0  0  0  0  0  0
  -25.1820  -23.9417  -18.0301 C   0  0  0  0  0  0
  -24.5457  -22.7325  -17.3439 C   0  0  0  0  0  0
  -24.6153  -25.0364  -18.0150 O   0  0  0  0  0  0
  -26.1838  -19.1896  -24.6335 N   0  0  0  0  0  0
  -27.3394  -19.5708  -25.2135 C   0  0  0  0  0  0
  -28.0801  -18.4816  -25.9850 C   0  0  0  0  0  0
  -29.8644  -18.7532  -26.1964 S   0  0  0  0  0  0
  -30.6155  -18.5607  -24.6060 C   0  0  0  0  0  0
  -32.0190  -18.6058  -24.5038 C   0  0  0  0  0  0
  -32.6162  -18.5061  -23.2317 C   0  0  0  0  0  0
  -31.8470  -18.3688  -22.1226 N   0  3  0  0  0  0
  -32.4772  -18.3501  -20.8135 C   0  0  0  0  0  0
  -30.4994  -18.3069  -22.1860 C   0  0  0  0  0  0
  -29.8522  -18.3899  -23.4288 C   0  0  0  0  0  0
  -27.8381  -20.6942  -25.1251 O   0  0  0  0  0  0
  -24.3384  -19.5270  -23.5937 H   0  0  0  0  0  0
  -27.0738  -19.5924  -22.2419 H   0  0  0  0  0  0
  -27.0614  -19.6695  -19.3439 H   0  0  0  0  0  0
  -25.5834  -20.2260  -18.5974 H   0  0  0  0  0  0
  -26.9542  -21.9074  -17.8231 H   0  0  0  0  0  0
  -28.1037  -22.6450  -18.8861 H   0  0  0  0  0  0
  -23.6503  -23.0377  -16.8035 H   0  0  0  0  0  0
  -24.2554  -21.9831  -18.0787 H   0  0  0  0  0  0
  -25.2303  -22.2853  -16.6229 H   0  0  0  0  0  0
  -25.8415  -18.2569  -24.8646 H   0  0  0  0  0  0
  -27.6134  -18.3494  -26.9571 H   0  0  0  0  0  0
  -27.9707  -17.5496  -25.4454 H   0  0  0  0  0  0
  -32.6304  -18.7267  -25.3857 H   0  0  0  0  0  0
  -33.6847  -18.5537  -23.0797 H   0  0  0  0  0  0
  -33.5280  -18.0837  -20.9148 H   0  0  0  0  0  0
  -32.3794  -19.3578  -20.4131 H   0  0  0  0  0  0
  -31.9647  -17.6280  -20.1761 H   0  0  0  0  0  0
  -29.9710  -18.1987  -21.2478 H   0  0  0  0  0  0
  -28.7779  -18.3318  -23.4292 H   0  0  0  0  0  0
  1  2  2  0  0  0
  2  5  1  0  0  0
  2  3  1  0  0  0
  3  4  1  0  0  0
  3 18  1  0  0  0
  3 30  1  0  0  0
  4 12  1  0  0  0
  4  5  1  0  0  0
  4 31  1  0  0  0
  5  6  1  0  0  0
  6  7  1  0  0  0
  6 10  2  0  0  0
  7  8  1  0  0  0
  7  9  2  0  0  0
 10 11  1  0  0  0
 10 13  1  0  0  0
 11 12  1  0  0  0
 11 32  1  0  0  0
 11 33  1  0  0  0
 13 14  1  0  0  0
 13 34  1  0  0  0
 13 35  1  0  0  0
 14 15  1  0  0  0
 15 16  1  0  0  0
 15 17  2  0  0  0
 16 36  1  0  0  0
 16 37  1  0  0  0
 16 38  1  0  0  0
 18 19  1  0  0  0
 18 39  1  0  0  0
 19 20  1  0  0  0
 19 29  2  0  0  0
 20 21  1  0  0  0
 20 40  1  0  0  0
 20 41  1  0  0  0
 21 22  1  0  0  0
 22 28  1  0  0  0
 22 23  2  0  0  0
 23 24  1  0  0  0
 23 42  1  0  0  0
 24 25  2  0  0  0
 24 43  1  0  0  0
 25 26  1  0  0  0
 25 27  1  0  0  0
 26 44  1  0  0  0
 26 45  1  0  0  0
 26 46  1  0  0  0
 27 28  2  0  0  0
 27 47  1  0  0  0
 28 48  1  0  0  0
M  CHG  2   8  -1  25   1
M  END
> <s_m_entry_id>
27786

> <s_m_entry_name>
data_maestro.17

> <s_m_Source_Path>
C:\Users\olshana1\Git\GramNeg-Accumulation\Gram Negative Permeation - OmpF

> <s_m_Source_File>
data_maestro.csv

> <i_m_Source_File_Index>
17

> <s_m_job_name>
glide-dock_Nicaido_neutral

> <s_i_glide_gridfile>
3POX-grid

> <i_i_glide_lignum>
22

> <i_i_glide_rotatable_bonds>
9

> <r_i_docking_score>
-2.66761278126982

> <r_i_glide_ligand_efficiency>
-0.0919866476299937

> <r_i_glide_ligand_efficiency_sa>
-0.282612124934852

> <r_i_glide_ligand_efficiency_ln>
-0.61081568208721

> <r_i_glide_gscore>
-2.66761278126982

> <r_i_glide_lipo>
0

> <r_i_glide_hbond>
-0.779055733096476

> <r_i_glide_metal>
0

> <r_i_glide_rewards>
2.40397178598036

> <r_i_glide_evdw>
-30.6714839935303

> <r_i_glide_ecoul>
-19.8480091094971

> <r_i_glide_erotb>
0.729326637690335

> <r_i_glide_esite>
-0.511079905742961

> <r_i_glide_emodel>
-52.1012517936658

> <r_i_glide_energy>
-50.5194931030273

> <r_i_glide_einternal>
14.7166175842285

> <i_i_glide_confnum>
60

> <i_i_glide_posenum>
192

> <r_i_glide_eff_state_penalty>
0

> <r_glide_res:A132_vdw>
0.275923678015109

> <r_glide_res:A132_coul>
-36.5309074637173

> <r_glide_res:A132_hbond>
-0.272920626568275

> <r_glide_res:A132_dist>
1.85319390663624

> <r_glide_res:A132_Eint>
-36.5279044122705

> <r_glide_res:A117_vdw>
-4.63570102116435

> <r_glide_res:A117_coul>
-20.3470307582628

> <r_glide_res:A117_hbond>
-0.16

> <r_glide_res:A117_dist>
1.93938985412816

> <r_glide_res:A117_Eint>
-25.1427317794272

> <r_glide_res:A113_vdw>
-2.8935596781822

> <r_glide_res:A113_coul>
-13.8186030124342

> <r_glide_res:A113_hbond>
0

> <r_glide_res:A113_dist>
2.36276367787446

> <r_glide_res:A113_Eint>
-16.7121626906164

> <r_glide_res:A82_vdw>
0.243539484950118

> <r_glide_res:A82_coul>
-32.3716928858261

> <r_glide_res:A82_hbond>
-0.179077721339816

> <r_glide_res:A82_dist>
1.8469388014011

> <r_glide_res:A82_Eint>
-32.3072311222158

> <r_glide_res:A42_vdw>
-1.40458394339181

> <r_glide_res:A42_coul>
-19.7069383677976

> <r_glide_res:A42_hbond>
-0.0137247660443361

> <r_glide_res:A42_dist>
2.40783864776685

> <r_glide_res:A42_Eint>
-21.1252470772338

> <r_glide_res:A16_vdw>
-0.8731594739651

> <r_glide_res:A16_coul>
-2.64180213220526

> <r_glide_res:A16_hbond>
0

> <r_glide_res:A16_dist>
3.11100121675818

> <r_glide_res:A16_Eint>
-3.51496160617036

> <s_m_source_file>
ligprep_Nicaido_neutral.maegz

> <i_m_source_file_index>
17

> <i_lp_mmshare_version>
58128

> <i_f3d_flags>
0

> <s_lp_Force_Field>
S-OPLS

> <r_lp_Energy>
45.233938

> <b_lp_Chiralities_Consistent>
1

> <s_lp_Variant>
BL-S217-1

> <s_epik_input>
W0NIM11DKD1PKU9bQ0gyXUMoW0NIMl1TMSk9QyhDKD1PKVtPSF0pTihbQ0BASF0xMilDKD1PKVtDQEhdMltOSF1DKD1PKVtDSDJdU2MzW2NIXVtjSF1bbitdKFtDSDNdKVtjSF1bY0hdMw==

> <s_epik_cmdline>
J2VwaWtfcHl0aG9uJywgJy1waHQnLCAnMC4wJywgJy1waCcsICc3LjQnLCAnLW50JywgJy1tYScsICc1MDAnLCAnLWltYWUnLCAnPGluZmlsZS5tYWU+JywgJy1vbWFlJywgJzxvdXRmaWxlLm1hZT4n

> <r_lp_tautomer_probability>
1

> <r_epik_Ionization_Penalty>
  0.0000

> <r_epik_Ionization_Penalty_Charging>
  0.0000

> <r_epik_Ionization_Penalty_Neutral>
  0.0000

> <r_epik_State_Penalty>
  0.0000

> <r_epik_Charging_Adjusted_Penalty>
6.14912740637116e-06

> <i_epik_Tot_Q>
0

> <i_epik_Tot_abs_Q>
2

> <s_epik_Chemistry_Notes>
This compound has an ester and may undergo hydrolysis at high or low pH. This compound contains an acetal/aminal-like group ( X-CH(R)-Y where X, Y are N, S, or O) that may be acid/base labile, releasing an aldehyde.

> <s_m_subgroup_title>
glide-dock_Nicaido_neutral_pv1

> <s_m_subgroupid>
glide-dock_Nicaido_neutral_pv1

> <b_m_subgroup_collapsed>
0

$$$$
Nocardicin B
                    3D
 Schrodinger Suite 2022-2.
 59 61  0  0  1  0            999 V2000
  -19.3112  -22.8858  -18.5827 O   0  0  0  0  0  0
  -20.0679  -23.8130  -18.7709 C   0  0  0  0  0  0
  -21.1821  -24.5091  -17.9794 C   0  0  2  0  0  0
  -21.3482  -25.3843  -19.2283 C   0  0  0  0  0  0
  -20.1998  -24.6860  -19.8244 N   0  0  0  0  0  0
  -19.4055  -24.8843  -21.0442 C   0  0  2  0  0  0
  -20.0015  -24.1743  -22.2374 C   0  0  0  0  0  0
  -19.1684  -23.8319  -23.3319 C   0  0  0  0  0  0
  -19.6609  -23.1576  -24.4658 C   0  0  0  0  0  0
  -21.0139  -22.7837  -24.5255 C   0  0  0  0  0  0
  -21.8656  -23.1016  -23.4540 C   0  0  0  0  0  0
  -21.3652  -23.7918  -22.3333 C   0  0  0  0  0  0
  -21.4894  -22.1152  -25.6144 O   0  0  0  0  0  0
  -19.2363  -26.3882  -21.3850 C   0  0  0  0  0  0
  -19.1456  -27.1716  -20.4093 O   0  5  0  0  0  0
  -19.1693  -26.7482  -22.5859 O   0  0  0  0  0  0
  -22.3116  -23.6285  -17.6942 N   0  0  0  0  0  0
  -23.5977  -23.9983  -17.6139 C   0  0  0  0  0  0
  -24.5436  -22.8418  -17.3401 C   0  0  0  0  0  0
  -25.7552  -22.8854  -18.2013 C   0  0  0  0  0  0
  -27.0336  -22.7901  -17.6132 C   0  0  0  0  0  0
  -28.2023  -22.8683  -18.3878 C   0  0  0  0  0  0
  -28.1124  -23.0239  -19.7802 C   0  0  0  0  0  0
  -26.8416  -23.1158  -20.3885 C   0  0  0  0  0  0
  -25.6728  -23.0313  -19.6066 C   0  0  0  0  0  0
  -29.2668  -23.1384  -20.5082 O   0  0  0  0  0  0
  -29.6690  -21.9533  -21.1897 C   0  0  0  0  0  0
  -28.9846  -21.9316  -22.5630 C   0  0  0  0  0  0
  -29.6391  -21.0311  -23.6409 C   0  0  2  0  0  0
  -29.2945  -21.5087  -25.0668 C   0  0  0  0  0  0
  -29.9689  -21.0443  -26.0130 O   0  5  0  0  0  0
  -28.3692  -22.3405  -25.2133 O   0  0  0  0  0  0
  -29.2248  -19.6206  -23.5004 N   0  3  0  0  0  0
  -24.4209  -21.9181  -16.4622 N   0  0  0  0  0  0
  -23.2879  -22.1199  -15.6132 O   0  0  0  0  0  0
  -24.0000  -25.1496  -17.7984 O   0  0  0  0  0  0
  -20.8373  -25.0781  -17.1171 H   0  0  0  0  0  0
  -21.1703  -26.4392  -19.0187 H   0  0  0  0  0  0
  -22.2818  -25.2549  -19.7747 H   0  0  0  0  0  0
  -18.4063  -24.4927  -20.8500 H   0  0  0  0  0  0
  -18.1233  -24.1055  -23.3040 H   0  0  0  0  0  0
  -18.9964  -22.9144  -25.2812 H   0  0  0  0  0  0
  -22.9050  -22.8092  -23.4802 H   0  0  0  0  0  0
  -22.0528  -24.0062  -21.5320 H   0  0  0  0  0  0
  -22.3455  -21.7345  -25.4931 H   0  0  0  0  0  0
  -22.1043  -22.6572  -17.4996 H   0  0  0  0  0  0
  -27.1259  -22.7270  -16.5381 H   0  0  0  0  0  0
  -29.1689  -22.8106  -17.9072 H   0  0  0  0  0  0
  -26.7531  -23.2490  -21.4558 H   0  0  0  0  0  0
  -24.7094  -23.0926  -20.0931 H   0  0  0  0  0  0
  -29.4485  -21.0539  -20.6105 H   0  0  0  0  0  0
  -30.7526  -21.9916  -21.3067 H   0  0  0  0  0  0
  -29.0028  -22.9691  -22.9008 H   0  0  0  0  0  0
  -27.9347  -21.6635  -22.4572 H   0  0  0  0  0  0
  -30.7235  -21.0783  -23.5343 H   0  0  0  0  0  0
  -29.6717  -19.0809  -24.2281 H   0  0  0  0  0  0
  -29.4953  -19.2628  -22.5962 H   0  0  0  0  0  0
  -23.5237  -21.6016  -14.8513 H   0  0  0  0  0  0
  -28.2232  -19.5476  -23.6084 H   0  0  0  0  0  0
  1  2  2  0  0  0
  2  5  1  0  0  0
  2  3  1  0  0  0
  3  4  1  0  0  0
  3 17  1  0  0  0
  3 37  1  0  0  0
  4  5  1  0  0  0
  4 38  1  0  0  0
  4 39  1  0  0  0
  5  6  1  0  0  0
  6  7  1  0  0  0
  6 14  1  0  0  0
  6 40  1  0  0  0
  7 12  1  0  0  0
  7  8  2  0  0  0
  8  9  1  0  0  0
  8 41  1  0  0  0
  9 10  2  0  0  0
  9 42  1  0  0  0
 10 11  1  0  0  0
 10 13  1  0  0  0
 11 12  2  0  0  0
 11 43  1  0  0  0
 12 44  1  0  0  0
 13 45  1  0  0  0
 14 15  1  0  0  0
 14 16  2  0  0  0
 17 18  1  0  0  0
 17 46  1  0  0  0
 18 19  1  0  0  0
 18 36  2  0  0  0
 19 20  1  0  0  0
 19 34  2  3  0  0
 20 25  1  0  0  0
 20 21  2  0  0  0
 21 22  1  0  0  0
 21 47  1  0  0  0
 22 23  2  0  0  0
 22 48  1  0  0  0
 23 24  1  0  0  0
 23 26  1  0  0  0
 24 25  2  0  0  0
 24 49  1  0  0  0
 25 50  1  0  0  0
 26 27  1  0  0  0
 27 28  1  0  0  0
 27 51  1  0  0  0
 27 52  1  0  0  0
 28 29  1  0  0  0
 28 53  1  0  0  0
 28 54  1  0  0  0
 29 30  1  0  0  0
 29 33  1  0  0  0
 29 55  1  0  0  0
 30 31  1  0  0  0
 30 32  2  0  0  0
 33 56  1  0  0  0
 33 57  1  0  0  0
 33 59  1  0  0  0
 34 35  1  0  0  0
 35 58  1  0  0  0
M  CHG  3  15  -1  31  -1  33   1
M  END
> <s_m_entry_id>
27787

> <s_m_entry_name>
data_maestro.29

> <s_m_Source_Path>
C:\Users\olshana1\Git\GramNeg-Accumulation\Gram Negative Permeation - OmpF

> <s_m_Source_File>
data_maestro.csv

> <i_m_Source_File_Index>
29

> <s_m_job_name>
glide-dock_Nicaido_neutral

> <s_i_glide_gridfile>
3POX-grid

> <i_i_glide_lignum>
37

> <i_i_glide_rotatable_bonds>
14

> <r_i_docking_score>
-2.53180547883753

> <r_i_glide_ligand_efficiency>
-0.0703279299677092

> <r_i_glide_ligand_efficiency_sa>
-0.232217708041346

> <r_i_glide_ligand_efficiency_ln>
-0.552371554003076

> <r_i_glide_gscore>
-2.53180547883753

> <r_i_glide_lipo>
0

> <r_i_glide_hbond>
-1.06960277370694

> <r_i_glide_metal>
0

> <r_i_glide_rewards>
1.96280815951848

> <r_i_glide_evdw>
-30.1385326385498

> <r_i_glide_ecoul>
-16.0345325469971

> <r_i_glide_erotb>
0.900147327125679

> <r_i_glide_esite>
-0.413051677797701

> <r_i_glide_emodel>
-46.0734497403973

> <r_i_glide_energy>
-46.1730651855469

> <r_i_glide_einternal>
19.394624710083

> <i_i_glide_confnum>
439

> <i_i_glide_posenum>
138

> <r_i_glide_eff_state_penalty>
0

> <r_glide_res:A132_vdw>
-2.33106031467989

> <r_glide_res:A132_coul>
-24.421560278199

> <r_glide_res:A132_hbond>
0

> <r_glide_res:A132_dist>
2.65674196803372

> <r_glide_res:A132_Eint>
-26.7526205928789

> <r_glide_res:A117_vdw>
-1.09096998992017

> <r_glide_res:A117_coul>
4.55823034100185

> <r_glide_res:A117_hbond>
0

> <r_glide_res:A117_dist>
3.13708447537893

> <r_glide_res:A117_Eint>
3.46726035108169

> <r_glide_res:A113_vdw>
-2.15647023440252

> <r_glide_res:A113_coul>
1.75119108680302

> <r_glide_res:A113_hbond>
0

> <r_glide_res:A113_dist>
2.24337568028764

> <r_glide_res:A113_Eint>
-0.405279147599506

> <r_glide_res:A82_vdw>
-1.36189029175273

> <r_glide_res:A82_coul>
-24.8911692428266

> <r_glide_res:A82_hbond>
0

> <r_glide_res:A82_dist>
2.8177598333427

> <r_glide_res:A82_Eint>
-26.2530595345793

> <r_glide_res:A42_vdw>
2.03692116009982

> <r_glide_res:A42_coul>
-39.3229575203844

> <r_glide_res:A42_hbond>
-0.349762444975675

> <r_glide_res:A42_dist>
1.90931527915593

> <r_glide_res:A42_Eint>
-37.6357988052603

> <r_glide_res:A16_vdw>
-0.453794552310386

> <r_glide_res:A16_coul>
-29.3407266090481

> <r_glide_res:A16_hbond>
-0.182776110646967

> <r_glide_res:A16_dist>
2.13444777870607

> <r_glide_res:A16_Eint>
-29.9772972720055

> <s_m_source_file>
ligprep_Nicaido_neutral.maegz

> <i_m_source_file_index>
29

> <i_lp_mmshare_version>
58128

> <i_f3d_flags>
0

> <s_lp_Force_Field>
S-OPLS

> <r_lp_Energy>
65.715273

> <b_lp_Chiralities_Consistent>
1

> <s_lp_Variant>
Nocardicin B-2

> <s_epik_input>
W2NIXTFbY0hdYyhbT0hdKVtjSF1bY0hdYzFbQ0BIXShDKD1PKVtPSF0pTjJbQ0gyXVtDQEBIXShDMj1PKVtOSF1DKD1PKS9DKD1OL1tPSF0pYzNbY0hdW2NIXWMoW2NIXVtjSF0zKU9bQ0gyXVtDSDJdW0NAQEhdKFtOSDJdKUMoPU8pW09IXQ==

> <s_epik_cmdline>
J2VwaWtfcHl0aG9uJywgJy1waHQnLCAnMC4wJywgJy1waCcsICc3LjQnLCAnLW50JywgJy1tYScsICc1MDAnLCAnLWltYWUnLCAnPGluZmlsZS5tYWU+JywgJy1vbWFlJywgJzxvdXRmaWxlLm1hZT4n

> <r_lp_tautomer_probability>
1

> <r_epik_Ionization_Penalty>
  0.0116

> <r_epik_Ionization_Penalty_Charging>
  0.0086

> <r_epik_Ionization_Penalty_Neutral>
  0.0030

> <r_epik_State_Penalty>
  0.0000

> <r_epik_Charging_Adjusted_Penalty>
0.0085560600321308

> <i_epik_Tot_Q>
-1

> <i_epik_Tot_abs_Q>
3

> <s_epik_Chemistry_Notes>
This compound has an imine and may undergo hydrolysis.

> <s_m_subgroup_title>
glide-dock_Nicaido_neutral_pv1

> <s_m_subgroupid>
glide-dock_Nicaido_neutral_pv1

> <b_m_subgroup_collapsed>
0

$$$$
Cephaloglycin
                    3D
 Schrodinger Suite 2022-2.
 46 48  0  0  1  0            999 V2000
  -30.5794  -22.2726  -21.2133 C   0  0  0  0  0  0
  -29.9841  -23.5497  -20.6156 C   0  0  0  0  0  0
  -28.8999  -23.4208  -19.7938 O   0  0  0  0  0  0
  -28.3193  -22.1680  -19.4090 C   0  0  0  0  0  0
  -27.6302  -21.3812  -20.5300 C   0  0  0  0  0  0
  -27.1274  -21.9037  -21.6716 C   0  0  0  0  0  0
  -26.7619  -21.0196  -22.6803 N   0  0  0  0  0  0
  -25.6496  -20.1276  -22.4168 C   0  0  1  0  0  0
  -25.8603  -19.6180  -23.8591 C   0  0  2  0  0  0
  -26.7190  -20.8896  -24.0536 C   0  0  0  0  0  0
  -27.1610  -21.5497  -24.9717 O   0  0  0  0  0  0
  -24.6239  -19.5496  -24.6522 N   0  0  0  0  0  0
  -23.8295  -20.5312  -25.1283 C   0  0  0  0  0  0
  -22.6165  -20.1211  -25.9884 C   0  0  2  0  0  0
  -21.4218  -20.3715  -25.1302 C   0  0  0  0  0  0
  -20.5382  -21.4385  -25.4178 C   0  0  0  0  0  0
  -19.4001  -21.6829  -24.6252 C   0  0  0  0  0  0
  -19.1230  -20.8601  -23.5188 C   0  0  0  0  0  0
  -19.9835  -19.7906  -23.2140 C   0  0  0  0  0  0
  -21.1151  -19.5499  -24.0171 C   0  0  0  0  0  0
  -22.6491  -18.7494  -26.4936 N   0  0  0  0  0  0
  -24.0254  -21.7297  -24.9166 O   0  0  0  0  0  0
  -26.0190  -19.1496  -20.8912 S   0  0  0  0  0  0
  -27.6148  -19.8683  -20.3435 C   0  0  0  0  0  0
  -26.9040  -23.4064  -21.9343 C   0  0  0  0  0  0
  -26.0382  -23.9495  -21.2153 O   0  5  0  0  0  0
  -27.6042  -23.9495  -22.8134 O   0  0  0  0  0  0
  -30.4484  -24.6447  -20.9250 O   0  0  0  0  0  0
  -31.5303  -22.4929  -21.6977 H   0  0  0  0  0  0
  -30.7673  -21.5399  -20.4280 H   0  0  0  0  0  0
  -29.9108  -21.8390  -21.9558 H   0  0  0  0  0  0
  -27.5955  -22.3417  -18.6132 H   0  0  0  0  0  0
  -29.1067  -21.5510  -18.9755 H   0  0  0  0  0  0
  -24.7264  -20.6977  -22.2883 H   0  0  0  0  0  0
  -26.4313  -18.6902  -23.8893 H   0  0  0  0  0  0
  -24.3693  -18.5911  -24.8837 H   0  0  0  0  0  0
  -22.6020  -20.7840  -26.8554 H   0  0  0  0  0  0
  -20.7309  -22.0787  -26.2672 H   0  0  0  0  0  0
  -18.7371  -22.4995  -24.8699 H   0  0  0  0  0  0
  -18.2494  -21.0424  -22.9103 H   0  0  0  0  0  0
  -19.7738  -19.1473  -22.3717 H   0  0  0  0  0  0
  -21.7590  -18.7158  -23.7761 H   0  0  0  0  0  0
  -22.6839  -18.7244  -27.5020 H   0  0  0  0  0  0
  -23.4535  -18.2145  -26.1766 H   0  0  0  0  0  0
  -28.4374  -19.4251  -20.9060 H   0  0  0  0  0  0
  -27.7670  -19.6086  -19.2953 H   0  0  0  0  0  0
  1  2  1  0  0  0
  1 29  1  0  0  0
  1 30  1  0  0  0
  1 31  1  0  0  0
  2  3  1  0  0  0
  2 28  2  0  0  0
  3  4  1  0  0  0
  4  5  1  0  0  0
  4 32  1  0  0  0
  4 33  1  0  0  0
  5 24  1  0  0  0
  5  6  2  0  0  0
  6  7  1  0  0  0
  6 25  1  0  0  0
  7 10  1  0  0  0
  7  8  1  0  0  0
  8  9  1  0  0  0
  8 23  1  0  0  0
  8 34  1  0  0  0
  9 10  1  0  0  0
  9 12  1  0  0  0
  9 35  1  0  0  0
 10 11  2  0  0  0
 12 13  1  0  0  0
 12 36  1  0  0  0
 13 14  1  0  0  0
 13 22  2  0  0  0
 14 15  1  0  0  0
 14 21  1  0  0  0
 14 37  1  0  0  0
 15 20  1  0  0  0
 15 16  2  0  0  0
 16 17  1  0  0  0
 16 38  1  0  0  0
 17 18  2  0  0  0
 17 39  1  0  0  0
 18 19  1  0  0  0
 18 40  1  0  0  0
 19 20  2  0  0  0
 19 41  1  0  0  0
 20 42  1  0  0  0
 21 43  1  0  0  0
 21 44  1  0  0  0
 23 24  1  0  0  0
 24 45  1  0  0  0
 24 46  1  0  0  0
 25 26  1  0  0  0
 25 27  2  0  0  0
M  CHG  1  26  -1
M  END
> <s_m_entry_id>
27788

> <s_m_entry_name>
data_maestro.16

> <s_m_Source_Path>
C:\Users\olshana1\Git\GramNeg-Accumulation\Gram Negative Permeation - OmpF

> <s_m_Source_File>
data_maestro.csv

> <i_m_Source_File_Index>
16

> <s_m_job_name>
glide-dock_Nicaido_neutral

> <s_i_glide_gridfile>
3POX-grid

> <i_i_glide_lignum>
21

> <i_i_glide_rotatable_bonds>
8

> <r_i_docking_score>
-2.40503437331578

> <r_i_glide_ligand_efficiency>
-0.0858940847612779

> <r_i_glide_ligand_efficiency_sa>
-0.260825030245742

> <r_i_glide_ligand_efficiency_ln>
-0.555152548238891

> <r_i_glide_gscore>
-2.51643437331578

> <r_i_glide_lipo>
-0.040606027716364

> <r_i_glide_hbond>
-0.86577995261016

> <r_i_glide_metal>
0

> <r_i_glide_rewards>
2.14840352194303

> <r_i_glide_evdw>
-27.8054714202881

> <r_i_glide_ecoul>
-16.5144634246826

> <r_i_glide_erotb>
0.600502745111863

> <r_i_glide_esite>
-0.491511575327355

> <r_i_glide_emodel>
-40.2389546671464

> <r_i_glide_energy>
-44.3199348449707

> <r_i_glide_einternal>
19.6389789581299

> <i_i_glide_confnum>
121

> <i_i_glide_posenum>
2

> <r_i_glide_eff_state_penalty>
0.1114

> <r_glide_res:A132_vdw>
-0.576220481631784

> <r_glide_res:A132_coul>
-51.9278078538294

> <r_glide_res:A132_hbond>
-0.20977995261016

> <r_glide_res:A132_dist>
1.80147776832068

> <r_glide_res:A132_Eint>
-52.7138082880713

> <r_glide_res:A117_vdw>
-2.95010579041299

> <r_glide_res:A117_coul>
4.41519411377146

> <r_glide_res:A117_hbond>
-0.304

> <r_glide_res:A117_dist>
1.85507095393334

> <r_glide_res:A117_Eint>
1.16108832335847

> <r_glide_res:A113_vdw>
-2.22225012028537

> <r_glide_res:A113_coul>
17.7368326493658

> <r_glide_res:A113_hbond>
0

> <r_glide_res:A113_dist>
2.33822833287086

> <r_glide_res:A113_Eint>
15.5145825290804

> <r_glide_res:A82_vdw>
2.13656485361383

> <r_glide_res:A82_coul>
-53.9718647361586

> <r_glide_res:A82_hbond>
-0.2

> <r_glide_res:A82_dist>
1.60779385527694

> <r_glide_res:A82_Eint>
-52.0352998825448

> <r_glide_res:A42_vdw>
-1.15785914420502

> <r_glide_res:A42_coul>
-39.3039769518908

> <r_glide_res:A42_hbond>
-0.152

> <r_glide_res:A42_dist>
1.90231897722559

> <r_glide_res:A42_Eint>
-40.6138360960958

> <r_glide_res:A16_vdw>
-0.221347930565672

> <r_glide_res:A16_coul>
-20.951445914204

> <r_glide_res:A16_hbond>
0

> <r_glide_res:A16_dist>
4.45728131737726

> <r_glide_res:A16_Eint>
-21.1727938447696

> <s_m_source_file>
ligprep_Nicaido_neutral.maegz

> <i_m_source_file_index>
16

> <i_lp_mmshare_version>
58128

> <i_f3d_flags>
0

> <s_lp_Force_Field>
S-OPLS

> <r_lp_Energy>
48.658328

> <b_lp_Chiralities_Consistent>
1

> <s_lp_Variant>
Cephaloglycin-1

> <s_epik_input>
W0NIM11DKD1PKU9bQ0gyXUMoPUMxQyg9TylbT0hdKVtDSDJdU1tDQEBIXShOMTIpW0NASF0oQzI9TylbTkhdQyg9TylbQ0BASF0oW05IMl0pYzNbY0hdW2NIXVtjSF1bY0hdW2NIXTM=

> <s_epik_cmdline>
J2VwaWtfcHl0aG9uJywgJy1waHQnLCAnMC4wJywgJy1waCcsICc3LjQnLCAnLW50JywgJy1tYScsICc1MDAnLCAnLWltYWUnLCAnPGluZmlsZS5tYWU+JywgJy1vbWFlJywgJzxvdXRmaWxlLm1hZT4n

> <r_epik_Ionization_Penalty>
  0.1114

> <r_epik_Ionization_Penalty_Charging>
  0.0000

> <r_epik_Ionization_Penalty_Neutral>
  0.1114

> <r_epik_State_Penalty>
  0.1114

> <r_epik_Charging_Adjusted_Penalty>
0.111378695294398

> <i_epik_Tot_Q>
-1

> <i_epik_Tot_abs_Q>
1

> <s_epik_Chemistry_Notes>
This compound has an ester and may undergo hydrolysis at high or low pH. This compound contains an acetal/aminal-like group ( X-CH(R)-Y where X, Y are N, S, or O) that may be acid/base labile, releasing an aldehyde.

> <s_m_subgroup_title>
glide-dock_Nicaido_neutral_pv1

> <s_m_subgroupid>
glide-dock_Nicaido_neutral_pv1

> <b_m_subgroup_collapsed>
0

$$$$
Cephaloglycin
                    3D
 Schrodinger Suite 2022-2.
 46 48  0  0  1  0            999 V2000
  -27.5650  -22.4360  -18.0161 C   0  0  0  0  0  0
  -27.4711  -23.6149  -18.9853 C   0  0  0  0  0  0
  -28.3486  -23.6564  -20.0135 O   0  0  0  0  0  0
  -29.1802  -22.5687  -20.4179 C   0  0  0  0  0  0
  -28.4698  -21.6519  -21.4035 C   0  0  0  0  0  0
  -28.3023  -21.9206  -22.7231 C   0  0  0  0  0  0
  -27.6352  -20.9660  -23.5025 N   0  0  0  0  0  0
  -26.3334  -20.4822  -23.0464 C   0  0  1  0  0  0
  -26.3567  -19.6101  -24.3181 C   0  0  2  0  0  0
  -27.3674  -20.6641  -24.8243 C   0  0  0  0  0  0
  -27.7221  -21.1493  -25.8772 O   0  0  0  0  0  0
  -25.0745  -19.5496  -25.0325 N   0  0  0  0  0  0
  -24.2966  -20.5512  -25.4908 C   0  0  0  0  0  0
  -22.9887  -20.1784  -26.2196 C   0  0  2  0  0  0
  -21.8905  -20.7939  -25.4199 C   0  0  0  0  0  0
  -21.2480  -21.9665  -25.8745 C   0  0  0  0  0  0
  -20.1893  -22.5538  -25.1556 C   0  0  0  0  0  0
  -19.7526  -21.9742  -23.9509 C   0  0  0  0  0  0
  -20.3761  -20.8066  -23.4768 C   0  0  0  0  0  0
  -21.4309  -20.2258  -24.2067 C   0  0  0  0  0  0
  -22.7664  -18.7495  -26.4179 N   0  0  0  0  0  0
  -24.5913  -21.7422  -25.3646 O   0  0  0  0  0  0
  -26.4130  -19.7899  -21.3476 S   0  0  0  0  0  0
  -28.0831  -20.2867  -20.8446 C   0  0  0  0  0  0
  -28.8452  -23.2121  -23.4472 C   0  0  0  0  0  0
  -29.2347  -23.1202  -24.6347 O   0  5  0  0  0  0
  -28.7650  -24.2864  -22.8108 O   0  0  0  0  0  0
  -26.6371  -24.5029  -18.8125 O   0  0  0  0  0  0
  -27.0654  -22.6911  -17.0808 H   0  0  0  0  0  0
  -27.0680  -21.5599  -18.4283 H   0  0  0  0  0  0
  -28.5987  -22.1869  -17.7751 H   0  0  0  0  0  0
  -29.5677  -21.9902  -19.5848 H   0  0  0  0  0  0
  -30.0590  -22.9883  -20.9073 H   0  0  0  0  0  0
  -25.6006  -21.2918  -23.0662 H   0  0  0  0  0  0
  -26.7876  -18.6236  -24.1399 H   0  0  0  0  0  0
  -24.7690  -18.5923  -25.2097 H   0  0  0  0  0  0
  -23.0370  -20.6378  -27.2079 H   0  0  0  0  0  0
  -21.5685  -22.4153  -26.8023 H   0  0  0  0  0  0
  -19.7075  -23.4410  -25.5379 H   0  0  0  0  0  0
  -18.9386  -22.4164  -23.3964 H   0  0  0  0  0  0
  -20.0429  -20.3481  -22.5573 H   0  0  0  0  0  0
  -21.8918  -19.3220  -23.8342 H   0  0  0  0  0  0
  -22.7419  -18.5099  -27.3984 H   0  0  0  0  0  0
  -23.4877  -18.1550  -26.0133 H   0  0  0  0  0  0
  -28.7962  -19.5510  -21.2181 H   0  0  0  0  0  0
  -28.1548  -20.2506  -19.7582 H   0  0  0  0  0  0
  1  2  1  0  0  0
  1 29  1  0  0  0
  1 30  1  0  0  0
  1 31  1  0  0  0
  2  3  1  0  0  0
  2 28  2  0  0  0
  3  4  1  0  0  0
  4  5  1  0  0  0
  4 32  1  0  0  0
  4 33  1  0  0  0
  5 24  1  0  0  0
  5  6  2  0  0  0
  6  7  1  0  0  0
  6 25  1  0  0  0
  7 10  1  0  0  0
  7  8  1  0  0  0
  8  9  1  0  0  0
  8 23  1  0  0  0
  8 34  1  0  0  0
  9 10  1  0  0  0
  9 12  1  0  0  0
  9 35  1  0  0  0
 10 11  2  0  0  0
 12 13  1  0  0  0
 12 36  1  0  0  0
 13 14  1  0  0  0
 13 22  2  0  0  0
 14 15  1  0  0  0
 14 21  1  0  0  0
 14 37  1  0  0  0
 15 20  1  0  0  0
 15 16  2  0  0  0
 16 17  1  0  0  0
 16 38  1  0  0  0
 17 18  2  0  0  0
 17 39  1  0  0  0
 18 19  1  0  0  0
 18 40  1  0  0  0
 19 20  2  0  0  0
 19 41  1  0  0  0
 20 42  1  0  0  0
 21 43  1  0  0  0
 21 44  1  0  0  0
 23 24  1  0  0  0
 24 45  1  0  0  0
 24 46  1  0  0  0
 25 26  1  0  0  0
 25 27  2  0  0  0
M  CHG  1  26  -1
M  END
> <s_m_entry_id>
27789

> <s_m_entry_name>
data_maestro.16

> <s_m_Source_Path>
C:\Users\olshana1\Git\GramNeg-Accumulation\Gram Negative Permeation - OmpF

> <s_m_Source_File>
data_maestro.csv

> <i_m_Source_File_Index>
16

> <s_m_job_name>
glide-dock_Nicaido_neutral

> <s_i_glide_gridfile>
3POX-grid

> <i_i_glide_lignum>
21

> <i_i_glide_rotatable_bonds>
8

> <r_i_docking_score>
-2.36364706231048

> <r_i_glide_ligand_efficiency>
-0.0844159665110885

> <r_i_glide_ligand_efficiency_sa>
-0.256336592673075

> <r_i_glide_ligand_efficiency_ln>
-0.545599141674613

> <r_i_glide_gscore>
-2.47504706231048

> <r_i_glide_lipo>
0

> <r_i_glide_hbond>
-1.10900512790552

> <r_i_glide_metal>
0

> <r_i_glide_rewards>
2.3174618142185

> <r_i_glide_evdw>
-27.9940395355225

> <r_i_glide_ecoul>
-15.7380237579346

> <r_i_glide_erotb>
0.600502745111863

> <r_i_glide_esite>
-0.523600953269006

> <r_i_glide_emodel>
-41.8039752221643

> <r_i_glide_energy>
-43.732063293457

> <r_i_glide_einternal>
13.915228843689

> <i_i_glide_confnum>
99

> <i_i_glide_posenum>
160

> <r_i_glide_eff_state_penalty>
0.1114

> <r_glide_res:A132_vdw>
-2.24227599134232

> <r_glide_res:A132_coul>
-40.1896181380974

> <r_glide_res:A132_hbond>
-0.151329084509043

> <r_glide_res:A132_dist>
2.10176556708146

> <r_glide_res:A132_Eint>
-42.5832232139488

> <r_glide_res:A117_vdw>
-2.7140844614746

> <r_glide_res:A117_coul>
3.91226112922782

> <r_glide_res:A117_hbond>
-0.304

> <r_glide_res:A117_dist>
1.78417835551071

> <r_glide_res:A117_Eint>
0.894176667753217

> <r_glide_res:A113_vdw>
-2.3234860532017

> <r_glide_res:A113_coul>
16.6497671034447

> <r_glide_res:A113_hbond>
0

> <r_glide_res:A113_dist>
2.21069905755681

> <r_glide_res:A113_Eint>
14.326281050243

> <r_glide_res:A82_vdw>
3.11541652749067

> <r_glide_res:A82_coul>
-54.0086489556923

> <r_glide_res:A82_hbond>
-0.32014647235762

> <r_glide_res:A82_dist>
1.72145279489766

> <r_glide_res:A82_Eint>
-51.2133789005592

> <r_glide_res:A42_vdw>
-1.83725229536993

> <r_glide_res:A42_coul>
-50.9511461676091

> <r_glide_res:A42_hbond>
-0.333529571038857

> <r_glide_res:A42_dist>
2.02138834126609

> <r_glide_res:A42_Eint>
-53.1219280340179

> <r_glide_res:A16_vdw>
-0.527979372239398

> <r_glide_res:A16_coul>
-30.2823254681364

> <r_glide_res:A16_hbond>
0

> <r_glide_res:A16_dist>
3.41120464610174

> <r_glide_res:A16_Eint>
-30.8103048403758

> <s_m_source_file>
ligprep_Nicaido_neutral.maegz

> <i_m_source_file_index>
16

> <i_lp_mmshare_version>
58128

> <i_f3d_flags>
0

> <s_lp_Force_Field>
S-OPLS

> <r_lp_Energy>
48.658328

> <b_lp_Chiralities_Consistent>
1

> <s_lp_Variant>
Cephaloglycin-1

> <s_epik_input>
W0NIM11DKD1PKU9bQ0gyXUMoPUMxQyg9TylbT0hdKVtDSDJdU1tDQEBIXShOMTIpW0NASF0oQzI9TylbTkhdQyg9TylbQ0BASF0oW05IMl0pYzNbY0hdW2NIXVtjSF1bY0hdW2NIXTM=

> <s_epik_cmdline>
J2VwaWtfcHl0aG9uJywgJy1waHQnLCAnMC4wJywgJy1waCcsICc3LjQnLCAnLW50JywgJy1tYScsICc1MDAnLCAnLWltYWUnLCAnPGluZmlsZS5tYWU+JywgJy1vbWFlJywgJzxvdXRmaWxlLm1hZT4n

> <r_epik_Ionization_Penalty>
  0.1114

> <r_epik_Ionization_Penalty_Charging>
  0.0000

> <r_epik_Ionization_Penalty_Neutral>
  0.1114

> <r_epik_State_Penalty>
  0.1114

> <r_epik_Charging_Adjusted_Penalty>
0.111378695294398

> <i_epik_Tot_Q>
-1

> <i_epik_Tot_abs_Q>
1

> <s_epik_Chemistry_Notes>
This compound has an ester and may undergo hydrolysis at high or low pH. This compound contains an acetal/aminal-like group ( X-CH(R)-Y where X, Y are N, S, or O) that may be acid/base labile, releasing an aldehyde.

> <s_m_subgroup_title>
glide-dock_Nicaido_neutral_pv1

> <s_m_subgroupid>
glide-dock_Nicaido_neutral_pv1

> <b_m_subgroup_collapsed>
0

$$$$
Cephalothin
                    3D
 Schrodinger Suite 2022-2.
 41 43  0  0  1  0            999 V2000
  -26.3870  -22.5392  -17.9569 C   0  0  0  0  0  0
  -26.7603  -23.7891  -18.7551 C   0  0  0  0  0  0
  -27.9637  -23.7849  -19.3771 O   0  0  0  0  0  0
  -28.7655  -22.6132  -19.5327 C   0  0  0  0  0  0
  -28.2622  -21.7105  -20.6571 C   0  0  0  0  0  0
  -28.1327  -22.1123  -21.9418 C   0  0  0  0  0  0
  -27.6970  -21.2061  -22.9132 N   0  0  0  0  0  0
  -26.4824  -20.4354  -22.6737 C   0  0  1  0  0  0
  -26.7930  -19.7743  -24.0372 C   0  0  2  0  0  0
  -27.6083  -21.0755  -24.2870 C   0  0  0  0  0  0
  -27.9686  -21.7739  -25.2134 O   0  0  0  0  0  0
  -25.6033  -19.5495  -24.8778 N   0  0  0  0  0  0
  -24.7202  -20.4327  -25.3755 C   0  0  0  0  0  0
  -23.5448  -19.8494  -26.1630 C   0  0  0  0  0  0
  -22.2618  -20.0636  -25.4253 C   0  0  0  0  0  0
  -21.8592  -19.4757  -24.2528 C   0  0  0  0  0  0
  -20.5809  -19.9242  -23.8096 C   0  0  0  0  0  0
  -20.0198  -20.8440  -24.6549 C   0  0  0  0  0  0
  -21.0545  -21.1755  -26.0164 S   0  0  0  0  0  0
  -24.8010  -21.6519  -25.2172 O   0  0  0  0  0  0
  -26.5521  -19.5497  -21.0617 S   0  0  0  0  0  0
  -28.0446  -20.2494  -20.2873 C   0  0  0  0  0  0
  -28.4221  -23.5602  -22.4159 C   0  0  0  0  0  0
  -29.5731  -23.8371  -22.8132 O   0  5  0  0  0  0
  -27.4468  -24.3475  -22.4133 O   0  0  0  0  0  0
  -25.9922  -24.7492  -18.8074 O   0  0  0  0  0  0
  -27.1625  -22.2954  -17.2303 H   0  0  0  0  0  0
  -25.4613  -22.7081  -17.4073 H   0  0  0  0  0  0
  -26.2365  -21.6864  -18.6176 H   0  0  0  0  0  0
  -28.8358  -22.0621  -18.5953 H   0  0  0  0  0  0
  -29.7804  -22.9257  -19.7785 H   0  0  0  0  0  0
  -25.6068  -21.0904  -22.6898 H   0  0  0  0  0  0
  -27.4036  -18.8754  -23.9290 H   0  0  0  0  0  0
  -25.3928  -18.5693  -25.0685 H   0  0  0  0  0  0
  -23.6932  -18.7850  -26.3519 H   0  0  0  0  0  0
  -23.5039  -20.3321  -27.1399 H   0  0  0  0  0  0
  -22.4366  -18.7469  -23.7020 H   0  0  0  0  0  0
  -20.1246  -19.5552  -22.9026 H   0  0  0  0  0  0
  -19.0628  -21.3364  -24.5682 H   0  0  0  0  0  0
  -28.9193  -19.6779  -20.5996 H   0  0  0  0  0  0
  -27.9602  -20.1214  -19.2078 H   0  0  0  0  0  0
  1  2  1  0  0  0
  1 27  1  0  0  0
  1 28  1  0  0  0
  1 29  1  0  0  0
  2  3  1  0  0  0
  2 26  2  0  0  0
  3  4  1  0  0  0
  4  5  1  0  0  0
  4 30  1  0  0  0
  4 31  1  0  0  0
  5 22  1  0  0  0
  5  6  2  0  0  0
  6  7  1  0  0  0
  6 23  1  0  0  0
  7 10  1  0  0  0
  7  8  1  0  0  0
  8  9  1  0  0  0
  8 21  1  0  0  0
  8 32  1  0  0  0
  9 10  1  0  0  0
  9 12  1  0  0  0
  9 33  1  0  0  0
 10 11  2  0  0  0
 12 13  1  0  0  0
 12 34  1  0  0  0
 13 14  1  0  0  0
 13 20  2  0  0  0
 14 15  1  0  0  0
 14 35  1  0  0  0
 14 36  1  0  0  0
 15 19  1  0  0  0
 15 16  2  0  0  0
 16 17  1  0  0  0
 16 37  1  0  0  0
 17 18  2  0  0  0
 17 38  1  0  0  0
 18 19  1  0  0  0
 18 39  1  0  0  0
 21 22  1  0  0  0
 22 40  1  0  0  0
 22 41  1  0  0  0
 23 24  1  0  0  0
 23 25  2  0  0  0
M  CHG  1  24  -1
M  END
> <s_m_entry_id>
27790

> <s_m_entry_name>
data_maestro.33

> <s_m_Source_Path>
C:\Users\olshana1\Git\GramNeg-Accumulation\Gram Negative Permeation - OmpF

> <s_m_Source_File>
data_maestro.csv

> <i_m_Source_File_Index>
33

> <s_m_job_name>
glide-dock_Nicaido_neutral

> <s_i_glide_gridfile>
3POX-grid

> <i_i_glide_lignum>
42

> <i_i_glide_rotatable_bonds>
8

> <r_i_docking_score>
-2.17901641005659

> <r_i_glide_ligand_efficiency>
-0.0838083234637152

> <r_i_glide_ligand_efficiency_sa>
-0.248281828491427

> <r_i_glide_ligand_efficiency_ln>
-0.511734853965775

> <r_i_glide_gscore>
-2.17901641005659

> <r_i_glide_lipo>
-0.0809251379980916

> <r_i_glide_hbond>
-0.846024759250391

> <r_i_glide_metal>
0

> <r_i_glide_rewards>
2.25569676279058

> <r_i_glide_evdw>
-27.7271327972412

> <r_i_glide_ecoul>
-14.770263671875

> <r_i_glide_erotb>
0.625287901339008

> <r_i_glide_esite>
-0.531154986294382

> <r_i_glide_emodel>
-37.9984898062497

> <r_i_glide_energy>
-42.4973964691162

> <r_i_glide_einternal>
14.9278440475464

> <i_i_glide_confnum>
90

> <i_i_glide_posenum>
140

> <r_i_glide_eff_state_penalty>
0

> <r_glide_res:A132_vdw>
-2.08568582722378

> <r_glide_res:A132_coul>
-46.5904869443818

> <r_glide_res:A132_hbond>
-0.148251375970161

> <r_glide_res:A132_dist>
2.2335132251324

> <r_glide_res:A132_Eint>
-48.8244241475757

> <r_glide_res:A117_vdw>
-3.87995879705925

> <r_glide_res:A117_coul>
7.24854869965132

> <r_glide_res:A117_hbond>
-0.16

> <r_glide_res:A117_dist>
1.92794234986723

> <r_glide_res:A117_Eint>
3.20858990259207

> <r_glide_res:A113_vdw>
-1.71671019945114

> <r_glide_res:A113_coul>
18.8318163861056

> <r_glide_res:A113_hbond>
0

> <r_glide_res:A113_dist>
2.3812552796888

> <r_glide_res:A113_Eint>
17.1151061866545

> <r_glide_res:A82_vdw>
4.1116014805716

> <r_glide_res:A82_coul>
-60.3496629397237

> <r_glide_res:A82_hbond>
-0.37777338328023

> <r_glide_res:A82_dist>
1.55554676656046

> <r_glide_res:A82_Eint>
-56.6158348424324

> <r_glide_res:A42_vdw>
-1.36152041329171

> <r_glide_res:A42_coul>
-43.4297878757279

> <r_glide_res:A42_hbond>
-0.16

> <r_glide_res:A42_dist>
1.91393760425021

> <r_glide_res:A42_Eint>
-44.9513082890196

> <r_glide_res:A16_vdw>
-0.345190735825422

> <r_glide_res:A16_coul>
-24.4149893773328

> <r_glide_res:A16_hbond>
0

> <r_glide_res:A16_dist>
3.77131636992035

> <r_glide_res:A16_Eint>
-24.7601801131582

> <s_m_source_file>
ligprep_Nicaido_neutral.maegz

> <i_m_source_file_index>
33

> <i_lp_mmshare_version>
58128

> <i_f3d_flags>
0

> <s_lp_Force_Field>
S-OPLS

> <r_lp_Energy>
31.39315

> <b_lp_Chiralities_Consistent>
1

> <s_lp_Variant>
Cephalothin-1

> <s_epik_input>
W0NIM11DKD1PKU9bQ0gyXUMoPUMxQyg9TylbT0hdKVtDSDJdU1tDQEBIXShOMTIpW0NASF0oQzI9TylbTkhdQyg9TylbQ0gyXWMzW2NIXVtjSF1bY0hdczM=

> <s_epik_cmdline>
J2VwaWtfcHl0aG9uJywgJy1waHQnLCAnMC4wJywgJy1waCcsICc3LjQnLCAnLW50JywgJy1tYScsICc1MDAnLCAnLWltYWUnLCAnPGluZmlsZS5tYWU+JywgJy1vbWFlJywgJzxvdXRmaWxlLm1hZT4n

> <r_lp_tautomer_probability>
1

> <r_epik_Ionization_Penalty>
  0.0000

> <r_epik_Ionization_Penalty_Charging>
  0.0000

> <r_epik_Ionization_Penalty_Neutral>
  0.0000

> <r_epik_State_Penalty>
  0.0000

> <r_epik_Charging_Adjusted_Penalty>
6.16900125885048e-06

> <i_epik_Tot_Q>
-1

> <i_epik_Tot_abs_Q>
1

> <s_epik_Chemistry_Notes>
This compound has an ester and may undergo hydrolysis at high or low pH. This compound contains an acetal/aminal-like group ( X-CH(R)-Y where X, Y are N, S, or O) that may be acid/base labile, releasing an aldehyde.

> <s_m_subgroup_title>
glide-dock_Nicaido_neutral_pv1

> <s_m_subgroupid>
glide-dock_Nicaido_neutral_pv1

> <b_m_subgroup_collapsed>
0

$$$$
BL-S217
                    3D
 Schrodinger Suite 2022-2.
 48 50  0  0  1  0            999 V2000
  -26.2983  -22.3427  -24.1332 O   0  0  0  0  0  0
  -26.2785  -21.5062  -23.2532 C   0  0  0  0  0  0
  -25.8896  -20.0125  -23.1062 C   0  0  2  0  0  0
  -26.6233  -20.0755  -21.7524 C   0  0  1  0  0  0
  -26.7454  -21.5031  -21.9545 N   0  0  0  0  0  0
  -27.4882  -22.2972  -21.0740 C   0  0  0  0  0  0
  -28.0329  -23.6336  -21.6796 C   0  0  0  0  0  0
  -29.2244  -23.9298  -21.4570 O   0  5  0  0  0  0
  -27.2199  -24.3495  -22.3078 O   0  0  0  0  0  0
  -27.6379  -21.9597  -19.7649 C   0  0  0  0  0  0
  -27.0889  -20.6722  -19.1443 C   0  0  0  0  0  0
  -25.8228  -19.8335  -20.1456 S   0  0  0  0  0  0
  -28.3678  -22.8471  -18.7713 C   0  0  0  0  0  0
  -27.6332  -24.0536  -18.5835 O   0  0  0  0  0  0
  -28.1702  -25.1499  -18.0134 C   0  0  0  0  0  0
  -29.5689  -24.9938  -17.4335 C   0  0  0  0  0  0
  -27.5923  -26.2361  -17.9709 O   0  0  0  0  0  0
  -26.6335  -19.1496  -24.0130 N   0  0  0  0  0  0
  -26.7761  -19.3294  -25.3294 C   0  0  0  0  0  0
  -27.9842  -18.6514  -25.9681 C   0  0  0  0  0  0
  -29.4350  -19.7468  -26.0133 S   0  0  0  0  0  0
  -30.2427  -19.4894  -24.4710 C   0  0  0  0  0  0
  -31.2031  -18.4686  -24.3539 C   0  0  0  0  0  0
  -31.8739  -18.3057  -23.1272 C   0  0  0  0  0  0
  -31.5808  -19.0946  -22.0649 N   0  3  0  0  0  0
  -32.3174  -18.9024  -20.8135 C   0  0  0  0  0  0
  -30.6414  -20.0712  -22.1424 C   0  0  0  0  0  0
  -29.9566  -20.3046  -23.3556 C   0  0  0  0  0  0
  -26.0460  -20.0609  -25.9976 O   0  0  0  0  0  0
  -24.8245  -19.7930  -23.0256 H   0  0  0  0  0  0
  -27.6053  -19.5964  -21.7625 H   0  0  0  0  0  0
  -27.9228  -19.9877  -18.9813 H   0  0  0  0  0  0
  -26.6565  -20.8850  -18.1659 H   0  0  0  0  0  0
  -28.4912  -22.3286  -17.8195 H   0  0  0  0  0  0
  -29.3662  -23.0528  -19.1569 H   0  0  0  0  0  0
  -29.8241  -25.8549  -16.8160 H   0  0  0  0  0  0
  -29.6071  -24.0999  -16.8134 H   0  0  0  0  0  0
  -30.3103  -24.9038  -18.2276 H   0  0  0  0  0  0
  -27.1698  -18.4103  -23.5737 H   0  0  0  0  0  0
  -27.7292  -18.3492  -26.9810 H   0  0  0  0  0  0
  -28.2422  -17.7398  -25.4328 H   0  0  0  0  0  0
  -31.4290  -17.8214  -25.1900 H   0  0  0  0  0  0
  -32.6297  -17.5496  -22.9737 H   0  0  0  0  0  0
  -33.2370  -18.3486  -21.0009 H   0  0  0  0  0  0
  -32.5661  -19.8853  -20.4134 H   0  0  0  0  0  0
  -31.6804  -18.3489  -20.1240 H   0  0  0  0  0  0
  -30.4718  -20.6479  -21.2419 H   0  0  0  0  0  0
  -29.2254  -21.0971  -23.4209 H   0  0  0  0  0  0
  1  2  2  0  0  0
  2  5  1  0  0  0
  2  3  1  0  0  0
  3  4  1  0  0  0
  3 18  1  0  0  0
  3 30  1  0  0  0
  4 12  1  0  0  0
  4  5  1  0  0  0
  4 31  1  0  0  0
  5  6  1  0  0  0
  6  7  1  0  0  0
  6 10  2  0  0  0
  7  8  1  0  0  0
  7  9  2  0  0  0
 10 11  1  0  0  0
 10 13  1  0  0  0
 11 12  1  0  0  0
 11 32  1  0  0  0
 11 33  1  0  0  0
 13 14  1  0  0  0
 13 34  1  0  0  0
 13 35  1  0  0  0
 14 15  1  0  0  0
 15 16  1  0  0  0
 15 17  2  0  0  0
 16 36  1  0  0  0
 16 37  1  0  0  0
 16 38  1  0  0  0
 18 19  1  0  0  0
 18 39  1  0  0  0
 19 20  1  0  0  0
 19 29  2  0  0  0
 20 21  1  0  0  0
 20 40  1  0  0  0
 20 41  1  0  0  0
 21 22  1  0  0  0
 22 28  1  0  0  0
 22 23  2  0  0  0
 23 24  1  0  0  0
 23 42  1  0  0  0
 24 25  2  0  0  0
 24 43  1  0  0  0
 25 26  1  0  0  0
 25 27  1  0  0  0
 26 44  1  0  0  0
 26 45  1  0  0  0
 26 46  1  0  0  0
 27 28  2  0  0  0
 27 47  1  0  0  0
 28 48  1  0  0  0
M  CHG  2   8  -1  25   1
M  END
> <s_m_entry_id>
27791

> <s_m_entry_name>
data_maestro.17

> <s_m_Source_Path>
C:\Users\olshana1\Git\GramNeg-Accumulation\Gram Negative Permeation - OmpF

> <s_m_Source_File>
data_maestro.csv

> <i_m_Source_File_Index>
17

> <s_m_job_name>
glide-dock_Nicaido_neutral

> <s_i_glide_gridfile>
3POX-grid

> <i_i_glide_lignum>
22

> <i_i_glide_rotatable_bonds>
9

> <r_i_docking_score>
-2.10089180605892

> <r_i_glide_ligand_efficiency>
-0.0724445450365144

> <r_i_glide_ligand_efficiency_sa>
-0.222572594395017

> <r_i_glide_ligand_efficiency_ln>
-0.481050949567898

> <r_i_glide_gscore>
-2.10089180605892

> <r_i_glide_lipo>
0

> <r_i_glide_hbond>
-0.722157098869002

> <r_i_glide_metal>
0

> <r_i_glide_rewards>
2.49478152574602

> <r_i_glide_evdw>
-27.2125587463379

> <r_i_glide_ecoul>
-17.9244995117188

> <r_i_glide_erotb>
0.729326637690335

> <r_i_glide_esite>
-0.553540006551559

> <r_i_glide_emodel>
-43.8124010286791

> <r_i_glide_energy>
-45.1370582580566

> <r_i_glide_einternal>
12.7762546539307

> <i_i_glide_confnum>
59

> <i_i_glide_posenum>
379

> <r_i_glide_eff_state_penalty>
0

> <r_glide_res:A132_vdw>
-0.209724915920608

> <r_glide_res:A132_coul>
-29.254287482669

> <r_glide_res:A132_hbond>
-0.109126102444887

> <r_glide_res:A132_dist>
2.24359019013889

> <r_glide_res:A132_Eint>
-29.5731385010345

> <r_glide_res:A117_vdw>
-4.83474735230074

> <r_glide_res:A117_coul>
-11.5998015506057

> <r_glide_res:A117_hbond>
-0.32

> <r_glide_res:A117_dist>
1.94678637560693

> <r_glide_res:A117_Eint>
-16.7545489029064

> <r_glide_res:A113_vdw>
-4.27750959035318

> <r_glide_res:A113_coul>
-23.1254445005783

> <r_glide_res:A113_hbond>
0

> <r_glide_res:A113_dist>
2.26307016694031

> <r_glide_res:A113_Eint>
-27.4029540909315

> <r_glide_res:A82_vdw>
1.79014014612486

> <r_glide_res:A82_coul>
-34.8627590382874

> <r_glide_res:A82_hbond>
-0.2

> <r_glide_res:A82_dist>
1.61943374412577

> <r_glide_res:A82_Eint>
-33.2726188921626

> <r_glide_res:A42_vdw>
-1.54672268005349

> <r_glide_res:A42_coul>
-18.8556825496818

> <r_glide_res:A42_hbond>
-0.093030996424115

> <r_glide_res:A42_dist>
2.19508642277542

> <r_glide_res:A42_Eint>
-20.4954362261594

> <r_glide_res:A16_vdw>
-0.803755888934331

> <r_glide_res:A16_coul>
-2.66675175359269

> <r_glide_res:A16_hbond>
0

> <r_glide_res:A16_dist>
2.67788595195885

> <r_glide_res:A16_Eint>
-3.47050764252702

> <s_m_source_file>
ligprep_Nicaido_neutral.maegz

> <i_m_source_file_index>
17

> <i_lp_mmshare_version>
58128

> <i_f3d_flags>
0

> <s_lp_Force_Field>
S-OPLS

> <r_lp_Energy>
45.233938

> <b_lp_Chiralities_Consistent>
1

> <s_lp_Variant>
BL-S217-1

> <s_epik_input>
W0NIM11DKD1PKU9bQ0gyXUMoW0NIMl1TMSk9QyhDKD1PKVtPSF0pTihbQ0BASF0xMilDKD1PKVtDQEhdMltOSF1DKD1PKVtDSDJdU2MzW2NIXVtjSF1bbitdKFtDSDNdKVtjSF1bY0hdMw==

> <s_epik_cmdline>
J2VwaWtfcHl0aG9uJywgJy1waHQnLCAnMC4wJywgJy1waCcsICc3LjQnLCAnLW50JywgJy1tYScsICc1MDAnLCAnLWltYWUnLCAnPGluZmlsZS5tYWU+JywgJy1vbWFlJywgJzxvdXRmaWxlLm1hZT4n

> <r_lp_tautomer_probability>
1

> <r_epik_Ionization_Penalty>
  0.0000

> <r_epik_Ionization_Penalty_Charging>
  0.0000

> <r_epik_Ionization_Penalty_Neutral>
  0.0000

> <r_epik_State_Penalty>
  0.0000

> <r_epik_Charging_Adjusted_Penalty>
6.14912740637116e-06

> <i_epik_Tot_Q>
0

> <i_epik_Tot_abs_Q>
2

> <s_epik_Chemistry_Notes>
This compound has an ester and may undergo hydrolysis at high or low pH. This compound contains an acetal/aminal-like group ( X-CH(R)-Y where X, Y are N, S, or O) that may be acid/base labile, releasing an aldehyde.

> <s_m_subgroup_title>
glide-dock_Nicaido_neutral_pv1

> <s_m_subgroupid>
glide-dock_Nicaido_neutral_pv1

> <b_m_subgroup_collapsed>
0

$$$$
Cefotaxime
                    3D
 Schrodinger Suite 2022-2.
 46 48  0  0  1  0            999 V2000
  -20.0773  -21.7502  -25.3978 C   0  0  0  0  0  0
  -20.2260  -23.2610  -25.2134 C   0  0  0  0  0  0
  -21.3368  -23.8441  -25.7215 O   0  0  0  0  0  0
  -22.3697  -23.1459  -26.4132 C   0  0  0  0  0  0
  -23.4068  -22.5288  -25.4823 C   0  0  0  0  0  0
  -24.0942  -23.2487  -24.5564 C   0  0  0  0  0  0
  -25.0595  -22.6551  -23.7218 N   0  0  0  0  0  0
  -25.7552  -21.4347  -24.1034 C   0  0  1  0  0  0
  -26.5038  -21.5274  -22.7608 C   0  0  2  0  0  0
  -25.8911  -22.9468  -22.6547 C   0  0  0  0  0  0
  -26.0877  -23.9496  -22.0025 O   0  0  0  0  0  0
  -27.9736  -21.5036  -22.8682 N   0  0  0  0  0  0
  -28.7709  -22.3392  -23.5703 C   0  0  0  0  0  0
  -30.2275  -22.2789  -23.1734 C   0  0  0  0  0  0
  -30.7528  -20.9114  -22.9058 C   0  0  0  0  0  0
  -31.3426  -20.5690  -21.7109 C   0  0  0  0  0  0
  -31.8694  -18.9075  -21.6892 S   0  0  0  0  0  0
  -31.2503  -18.7387  -23.3232 C   0  0  0  0  0  0
  -31.3450  -17.5496  -24.0134 N   0  0  0  0  0  0
  -30.6967  -19.8461  -23.8137 N   0  0  0  0  0  0
  -30.8944  -23.3629  -23.0967 N   0  0  0  0  0  0
  -32.2362  -23.1537  -22.7510 O   0  0  0  0  0  0
  -32.7855  -24.3983  -22.3491 C   0  0  0  0  0  0
  -28.3706  -23.1491  -24.4126 O   0  0  0  0  0  0
  -24.5009  -20.1716  -24.4216 S   0  0  0  0  0  0
  -23.6402  -21.0420  -25.7547 C   0  0  0  0  0  0
  -23.8464  -24.7853  -24.3626 C   0  0  0  0  0  0
  -24.3707  -25.5416  -25.2128 O   0  5  0  0  0  0
  -23.1026  -25.1384  -23.4194 O   0  0  0  0  0  0
  -19.3557  -23.9103  -24.6358 O   0  0  0  0  0  0
  -20.8555  -21.2191  -24.8539 H   0  0  0  0  0  0
  -19.1172  -21.4208  -25.0046 H   0  0  0  0  0  0
  -20.1203  -21.4780  -26.4528 H   0  0  0  0  0  0
  -22.8789  -23.8612  -27.0568 H   0  0  0  0  0  0
  -21.9684  -22.3857  -27.0827 H   0  0  0  0  0  0
  -26.3853  -21.5733  -24.9824 H   0  0  0  0  0  0
  -26.1196  -20.8171  -22.0295 H   0  0  0  0  0  0
  -28.4338  -20.8580  -22.2411 H   0  0  0  0  0  0
  -31.5021  -21.1859  -20.8359 H   0  0  0  0  0  0
  -30.7191  -17.3872  -24.7889 H   0  0  0  0  0  0
  -31.5641  -16.7141  -23.4713 H   0  0  0  0  0  0
  -33.8314  -24.2603  -22.0781 H   0  0  0  0  0  0
  -32.7408  -25.1355  -23.1533 H   0  0  0  0  0  0
  -32.2671  -24.7954  -21.4736 H   0  0  0  0  0  0
  -22.6932  -20.5308  -25.9260 H   0  0  0  0  0  0
  -24.2222  -20.9450  -26.6712 H   0  0  0  0  0  0
  1  2  1  0  0  0
  1 31  1  0  0  0
  1 32  1  0  0  0
  1 33  1  0  0  0
  2  3  1  0  0  0
  2 30  2  0  0  0
  3  4  1  0  0  0
  4  5  1  0  0  0
  4 34  1  0  0  0
  4 35  1  0  0  0
  5 26  1  0  0  0
  5  6  2  0  0  0
  6  7  1  0  0  0
  6 27  1  0  0  0
  7 10  1  0  0  0
  7  8  1  0  0  0
  8  9  1  0  0  0
  8 25  1  0  0  0
  8 36  1  0  0  0
  9 10  1  0  0  0
  9 12  1  0  0  0
  9 37  1  0  0  0
 10 11  2  0  0  0
 12 13  1  0  0  0
 12 38  1  0  0  0
 13 14  1  0  0  0
 13 24  2  0  0  0
 14 15  1  0  0  0
 14 21  2  3  0  0
 15 20  1  0  0  0
 15 16  2  0  0  0
 16 17  1  0  0  0
 16 39  1  0  0  0
 17 18  1  0  0  0
 18 19  1  0  0  0
 18 20  2  0  0  0
 19 40  1  0  0  0
 19 41  1  0  0  0
 21 22  1  0  0  0
 22 23  1  0  0  0
 23 42  1  0  0  0
 23 43  1  0  0  0
 23 44  1  0  0  0
 25 26  1  0  0  0
 26 45  1  0  0  0
 26 46  1  0  0  0
 27 28  1  0  0  0
 27 29  2  0  0  0
M  CHG  1  28  -1
M  END
> <s_m_entry_id>
27792

> <s_m_entry_name>
data_maestro.6

> <s_m_Source_Path>
C:\Users\olshana1\Git\GramNeg-Accumulation\Gram Negative Permeation - OmpF

> <s_m_Source_File>
data_maestro.csv

> <i_m_Source_File_Index>
6

> <s_m_job_name>
glide-dock_Nicaido_neutral

> <s_i_glide_gridfile>
3POX-grid

> <i_i_glide_lignum>
7

> <i_i_glide_rotatable_bonds>
9

> <r_i_docking_score>
-1.99268725496164

> <r_i_glide_ligand_efficiency>
-0.0664229084987214

> <r_i_glide_ligand_efficiency_sa>
-0.206391420193233

> <r_i_glide_ligand_efficiency_ln>
-0.452760256393928

> <r_i_glide_gscore>
-1.99268725496164

> <r_i_glide_lipo>
-0.0271332915536749

> <r_i_glide_hbond>
-0.979080556986164

> <r_i_glide_metal>
0

> <r_i_glide_rewards>
2.51275074963749

> <r_i_glide_evdw>
-29.4862804412842

> <r_i_glide_ecoul>
-13.6505327224731

> <r_i_glide_erotb>
0.680611118548691

> <r_i_glide_esite>
-0.657941344172798

> <r_i_glide_emodel>
-37.3232655384998

> <r_i_glide_energy>
-43.1368131637573

> <r_i_glide_einternal>
17.0087490081787

> <i_i_glide_confnum>
226

> <i_i_glide_posenum>
177

> <r_i_glide_eff_state_penalty>
0

> <r_glide_res:A132_vdw>
-1.30906308209503

> <r_glide_res:A132_coul>
-36.8737191092556

> <r_glide_res:A132_hbond>
-0.116821894092994

> <r_glide_res:A132_dist>
2.08715182796658

> <r_glide_res:A132_Eint>
-38.2996040854436

> <r_glide_res:A117_vdw>
-3.15436852817073

> <r_glide_res:A117_coul>
16.978282912807

> <r_glide_res:A117_hbond>
0

> <r_glide_res:A117_dist>
2.81609194357808

> <r_glide_res:A117_Eint>
13.8239143846363

> <r_glide_res:A113_vdw>
-2.57301244126753

> <r_glide_res:A113_coul>
10.1805701792532

> <r_glide_res:A113_hbond>
0

> <r_glide_res:A113_dist>
2.61446140827918

> <r_glide_res:A113_Eint>
7.60755773798562

> <r_glide_res:A82_vdw>
-3.25997387855173

> <r_glide_res:A82_coul>
-47.2814973832847

> <r_glide_res:A82_hbond>
-0.234660778623964

> <r_glide_res:A82_dist>
2.00352125143429

> <r_glide_res:A82_Eint>
-50.7761320404604

> <r_glide_res:A42_vdw>
-3.38485424910565

> <r_glide_res:A42_coul>
-36.0124833809659

> <r_glide_res:A42_hbond>
-0.107597884269207

> <r_glide_res:A42_dist>
1.90765119695695

> <r_glide_res:A42_Eint>
-39.5049355143408

> <r_glide_res:A16_vdw>
-0.469577868571042

> <r_glide_res:A16_coul>
-19.1330562656695

> <r_glide_res:A16_hbond>
0

> <r_glide_res:A16_dist>
4.52014456422244

> <r_glide_res:A16_Eint>
-19.6026341342406

> <s_m_source_file>
ligprep_Nicaido_neutral.maegz

> <i_m_source_file_index>
6

> <i_lp_mmshare_version>
58128

> <i_f3d_flags>
0

> <s_lp_Force_Field>
S-OPLS

> <r_lp_Energy>
53.728996

> <b_lp_Chiralities_Consistent>
1

> <s_lp_Variant>
Cefotaxime-1

> <s_epik_input>
W0NIM11DKD1PKU9bQ0gyXUMoPUMxQyg9TylbT0hdKVtDSDJdU1tDQEBIXShOMTIpW0NASF0oQzI9TylbTkhdQyg9TykvQyg9Ti9PW0NIM10pYzNbY0hdc2MobjMpW05IMl0=

> <s_epik_cmdline>
J2VwaWtfcHl0aG9uJywgJy1waHQnLCAnMC4wJywgJy1waCcsICc3LjQnLCAnLW50JywgJy1tYScsICc1MDAnLCAnLWltYWUnLCAnPGluZmlsZS5tYWU+JywgJy1vbWFlJywgJzxvdXRmaWxlLm1hZT4n

> <r_lp_tautomer_probability>
1

> <r_epik_Ionization_Penalty>
  0.0004

> <r_epik_Ionization_Penalty_Charging>
  0.0000

> <r_epik_Ionization_Penalty_Neutral>
  0.0004

> <r_epik_State_Penalty>
  0.0000

> <r_epik_Charging_Adjusted_Penalty>
5.45682606121274e-06

> <i_epik_Tot_Q>
-1

> <i_epik_Tot_abs_Q>
1

> <s_epik_Chemistry_Notes>
This compound has an ester and may undergo hydrolysis at high or low pH. This compound has an imine and may undergo hydrolysis. This compound contains an acetal/aminal-like group ( X-CH(R)-Y where X, Y are N, S, or O) that may be acid/base labile, releasing an aldehyde.

> <s_m_subgroup_title>
glide-dock_Nicaido_neutral_pv1

> <s_m_subgroupid>
glide-dock_Nicaido_neutral_pv1

> <b_m_subgroup_collapsed>
0

$$$$
Ceftriaxone
                    3D
 Schrodinger Suite 2022-2.
 52 55  0  0  1  0            999 V2000
  -17.7580  -24.7035  -17.8685 C   0  0  0  0  0  0
  -18.9100  -24.9413  -18.7311 N   0  0  0  0  0  0
  -19.6046  -23.8359  -19.2919 C   0  0  0  0  0  0
  -19.6092  -22.3485  -18.2193 S   0  0  0  0  0  0
  -20.5044  -22.9258  -16.7403 C   0  0  0  0  0  0
  -22.0165  -22.7490  -16.8796 C   0  0  0  0  0  0
  -22.8630  -23.7281  -17.2994 C   0  0  0  0  0  0
  -24.2398  -23.5087  -17.5040 N   0  0  0  0  0  0
  -24.9756  -22.3791  -16.9603 C   0  0  2  0  0  0
  -26.1630  -22.8283  -17.8432 C   0  0  2  0  0  0
  -25.3602  -24.1428  -18.0141 C   0  0  0  0  0  0
  -25.5720  -25.2697  -18.4126 O   0  0  0  0  0  0
  -26.2704  -22.0098  -19.0536 N   0  0  0  0  0  0
  -26.7636  -22.3644  -20.2534 C   0  0  0  0  0  0
  -26.6645  -21.2815  -21.3281 C   0  0  0  0  0  0
  -25.7779  -20.1095  -21.0184 C   0  0  0  0  0  0
  -24.7263  -19.7576  -21.8363 C   0  0  0  0  0  0
  -23.8363  -18.3864  -21.2261 S   0  0  0  0  0  0
  -24.9231  -18.3500  -19.8512 C   0  0  0  0  0  0
  -24.7692  -17.4517  -18.8129 N   0  0  0  0  0  0
  -25.8841  -19.2699  -19.9014 N   0  0  0  0  0  0
  -27.2927  -21.4404  -22.4296 N   0  0  0  0  0  0
  -27.0733  -20.4065  -23.3556 O   0  0  0  0  0  0
  -28.2752  -19.6669  -23.5062 C   0  0  0  0  0  0
  -27.2371  -23.4811  -20.4969 O   0  0  0  0  0  0
  -24.0414  -20.8497  -17.2781 S   0  0  0  0  0  0
  -22.4780  -21.3400  -16.5151 C   0  0  0  0  0  0
  -22.3527  -25.1498  -17.7043 C   0  0  0  0  0  0
  -21.7547  -25.7925  -16.8102 O   0  5  0  0  0  0
  -22.6510  -25.5493  -18.8518 O   0  0  0  0  0  0
  -20.1829  -23.8474  -20.4583 N   0  0  0  0  0  0
  -20.2374  -25.0502  -21.1620 C   0  0  0  0  0  0
  -19.7649  -26.3555  -20.4336 C   0  0  0  0  0  0
  -19.9672  -27.4165  -21.0249 O   0  0  0  0  0  0
  -19.1690  -26.2550  -19.2135 N   0  5  0  0  0  0
  -20.6664  -25.1474  -22.3135 O   0  0  0  0  0  0
  -18.0680  -24.5502  -16.8356 H   0  0  0  0  0  0
  -17.0735  -25.5497  -17.8867 H   0  0  0  0  0  0
  -17.1917  -23.8302  -18.1949 H   0  0  0  0  0  0
  -20.1687  -22.3335  -15.8889 H   0  0  0  0  0  0
  -20.2157  -23.9444  -16.5006 H   0  0  0  0  0  0
  -25.1650  -22.5115  -15.8918 H   0  0  0  0  0  0
  -27.0927  -22.9138  -17.2793 H   0  0  0  0  0  0
  -25.9295  -21.0582  -18.9635 H   0  0  0  0  0  0
  -24.4291  -20.2136  -22.7680 H   0  0  0  0  0  0
  -25.3591  -17.5492  -17.9959 H   0  0  0  0  0  0
  -23.9141  -16.9291  -18.6888 H   0  0  0  0  0  0
  -28.1182  -18.8639  -24.2267 H   0  0  0  0  0  0
  -29.0910  -20.2942  -23.8681 H   0  0  0  0  0  0
  -28.5768  -19.2044  -22.5646 H   0  0  0  0  0  0
  -22.5742  -21.2745  -15.4308 H   0  0  0  0  0  0
  -21.7266  -20.6095  -16.8162 H   0  0  0  0  0  0
  1  2  1  0  0  0
  1 37  1  0  0  0
  1 38  1  0  0  0
  1 39  1  0  0  0
  2 35  1  0  0  0
  2  3  1  0  0  0
  3  4  1  0  0  0
  3 31  2  0  0  0
  4  5  1  0  0  0
  5  6  1  0  0  0
  5 40  1  0  0  0
  5 41  1  0  0  0
  6 27  1  0  0  0
  6  7  2  0  0  0
  7  8  1  0  0  0
  7 28  1  0  0  0
  8 11  1  0  0  0
  8  9  1  0  0  0
  9 10  1  0  0  0
  9 26  1  0  0  0
  9 42  1  0  0  0
 10 11  1  0  0  0
 10 13  1  0  0  0
 10 43  1  0  0  0
 11 12  2  0  0  0
 13 14  1  0  0  0
 13 44  1  0  0  0
 14 15  1  0  0  0
 14 25  2  0  0  0
 15 16  1  0  0  0
 15 22  2  3  0  0
 16 21  1  0  0  0
 16 17  2  0  0  0
 17 18  1  0  0  0
 17 45  1  0  0  0
 18 19  1  0  0  0
 19 20  1  0  0  0
 19 21  2  0  0  0
 20 46  1  0  0  0
 20 47  1  0  0  0
 22 23  1  0  0  0
 23 24  1  0  0  0
 24 48  1  0  0  0
 24 49  1  0  0  0
 24 50  1  0  0  0
 26 27  1  0  0  0
 27 51  1  0  0  0
 27 52  1  0  0  0
 28 29  1  0  0  0
 28 30  2  0  0  0
 31 32  1  0  0  0
 32 33  1  0  0  0
 32 36  2  0  0  0
 33 34  2  0  0  0
 33 35  1  0  0  0
M  CHG  2  29  -1  35  -1
M  END
> <s_m_entry_id>
27793

> <s_m_entry_name>
data_maestro.22

> <s_m_Source_Path>
C:\Users\olshana1\Git\GramNeg-Accumulation\Gram Negative Permeation - OmpF

> <s_m_Source_File>
data_maestro.csv

> <i_m_Source_File_Index>
22

> <s_m_job_name>
glide-dock_Nicaido_neutral

> <s_i_glide_gridfile>
3POX-grid

> <i_i_glide_lignum>
28

> <i_i_glide_rotatable_bonds>
9

> <r_i_docking_score>
-1.90284482745298

> <r_i_glide_ligand_efficiency>
-0.0528568007625828

> <r_i_glide_ligand_efficiency_sa>
-0.17452931051889

> <r_i_glide_ligand_efficiency_ln>
-0.415149332424036

> <r_i_glide_gscore>
-1.90284482745298

> <r_i_glide_lipo>
0

> <r_i_glide_hbond>
-0.755970021947311

> <r_i_glide_metal>
0

> <r_i_glide_rewards>
2.60117321964292

> <r_i_glide_evdw>
-35.2550621032715

> <r_i_glide_ecoul>
-12.6933164596558

> <r_i_glide_erotb>
0.472124986767549

> <r_i_glide_esite>
-0.553422437804198

> <r_i_glide_emodel>
-47.174268727046

> <r_i_glide_energy>
-47.9483785629272

> <r_i_glide_einternal>
13.0729217529297

> <i_i_glide_confnum>
201

> <i_i_glide_posenum>
256

> <r_i_glide_eff_state_penalty>
0

> <r_glide_res:A132_vdw>
-2.4636348814694

> <r_glide_res:A132_coul>
-58.7823281435154

> <r_glide_res:A132_hbond>
-0.0281719860116541

> <r_glide_res:A132_dist>
2.42957003497086

> <r_glide_res:A132_Eint>
-61.2741350109965

> <r_glide_res:A117_vdw>
-3.37160495363716

> <r_glide_res:A117_coul>
28.6261473488523

> <r_glide_res:A117_hbond>
0

> <r_glide_res:A117_dist>
2.78313149350396

> <r_glide_res:A117_Eint>
25.2545423952151

> <r_glide_res:A113_vdw>
-1.1265799633612

> <r_glide_res:A113_coul>
29.3700523156555

> <r_glide_res:A113_hbond>
0

> <r_glide_res:A113_dist>
4.3410585795932

> <r_glide_res:A113_Eint>
28.2434723522943

> <r_glide_res:A82_vdw>
-0.696206103058413

> <r_glide_res:A82_coul>
-41.2352724726684

> <r_glide_res:A82_hbond>
0

> <r_glide_res:A82_dist>
3.61759771171824

> <r_glide_res:A82_Eint>
-41.9314785757268

> <r_glide_res:A42_vdw>
-0.388652959057023

> <r_glide_res:A42_coul>
-34.5775871341034

> <r_glide_res:A42_hbond>
0

> <r_glide_res:A42_dist>
3.82614211444043

> <r_glide_res:A42_Eint>
-34.9662400931605

> <r_glide_res:A16_vdw>
-0.0769037087613481

> <r_glide_res:A16_coul>
-23.6376784776119

> <r_glide_res:A16_hbond>
0

> <r_glide_res:A16_dist>
4.50221934250559

> <r_glide_res:A16_Eint>
-23.7145821863733

> <s_m_source_file>
ligprep_Nicaido_neutral.maegz

> <i_m_source_file_index>
22

> <i_lp_mmshare_version>
58128

> <i_f3d_flags>
0

> <s_lp_Force_Field>
S-OPLS

> <r_lp_Energy>
109.903222

> <b_lp_Chiralities_Consistent>
1

> <s_lp_Variant>
Ceftriaxone-1

> <s_epik_input>
W09IXWMobjEpYyg9TyluYyhuMVtDSDNdKVNbQ0gyXUMoPUMyQyg9TylbT0hdKVtDSDJdU1tDQEhdKE4yMylbQ0BIXShDMz1PKVtOSF1DKD1PKS9DKD1OL09bQ0gzXSljNFtjSF1zYyhuNClbTkgyXQ==

> <s_epik_cmdline>
J2VwaWtfcHl0aG9uJywgJy1waHQnLCAnMC4wJywgJy1waCcsICc3LjQnLCAnLW50JywgJy1tYScsICc1MDAnLCAnLWltYWUnLCAnPGluZmlsZS5tYWU+JywgJy1vbWFlJywgJzxvdXRmaWxlLm1hZT4n

> <r_lp_tautomer_probability>
1

> <r_epik_Ionization_Penalty>
  0.0014

> <r_epik_Ionization_Penalty_Charging>
  0.0010

> <r_epik_Ionization_Penalty_Neutral>
  0.0004

> <r_epik_State_Penalty>
  0.0000

> <r_epik_Charging_Adjusted_Penalty>
0.000994184415634904

> <i_epik_Tot_Q>
-2

> <i_epik_Tot_abs_Q>
2

> <s_epik_Chemistry_Notes>
This compound has an imine and may undergo hydrolysis. This compound contains an acetal/aminal-like group ( X-CH(R)-Y where X, Y are N, S, or O) that may be acid/base labile, releasing an aldehyde.

> <s_m_subgroup_title>
glide-dock_Nicaido_neutral_pv1

> <s_m_subgroupid>
glide-dock_Nicaido_neutral_pv1

> <b_m_subgroup_collapsed>
0

$$$$
Cephalothin
                    3D
 Schrodinger Suite 2022-2.
 41 43  0  0  1  0            999 V2000
  -26.4330  -22.4518  -17.9615 C   0  0  0  0  0  0
  -26.6765  -23.7071  -18.8012 C   0  0  0  0  0  0
  -27.8326  -23.7654  -19.5026 O   0  0  0  0  0  0
  -28.7674  -22.6894  -19.5958 C   0  0  0  0  0  0
  -28.4967  -21.7473  -20.7732 C   0  0  0  0  0  0
  -28.4103  -22.1555  -22.0666 C   0  0  0  0  0  0
  -28.1848  -21.2658  -23.1325 N   0  0  0  0  0  0
  -27.6357  -19.9438  -22.9117 C   0  0  1  0  0  0
  -27.6938  -19.7214  -24.4363 C   0  0  2  0  0  0
  -28.2399  -21.1725  -24.5147 C   0  0  0  0  0  0
  -28.5653  -21.9510  -25.3877 O   0  0  0  0  0  0
  -26.3692  -19.4873  -25.0537 N   0  0  0  0  0  0
  -25.3605  -20.3513  -25.2922 C   0  0  0  0  0  0
  -24.1573  -19.8105  -26.0692 C   0  0  0  0  0  0
  -22.8980  -19.8768  -25.2673 C   0  0  0  0  0  0
  -22.5752  -19.1505  -24.1488 C   0  0  0  0  0  0
  -21.2767  -19.4508  -23.6433 C   0  0  0  0  0  0
  -20.6260  -20.4021  -24.3842 C   0  0  0  0  0  0
  -21.5973  -20.9466  -25.7246 S   0  0  0  0  0  0
  -25.3702  -21.5375  -24.9594 O   0  0  0  0  0  0
  -28.7688  -19.1500  -21.7355 S   0  0  0  0  0  0
  -28.4132  -20.2797  -20.3734 C   0  0  0  0  0  0
  -28.5957  -23.6347  -22.4498 C   0  0  0  0  0  0
  -27.5683  -24.3492  -22.4132 O   0  5  0  0  0  0
  -29.7348  -23.9945  -22.8133 O   0  0  0  0  0  0
  -25.8494  -24.6201  -18.8144 O   0  0  0  0  0  0
  -27.2216  -22.3246  -17.2189 H   0  0  0  0  0  0
  -25.4860  -22.5337  -17.4280 H   0  0  0  0  0  0
  -26.3889  -21.5624  -18.5889 H   0  0  0  0  0  0
  -28.8261  -22.1264  -18.6642 H   0  0  0  0  0  0
  -29.7573  -23.1234  -19.7383 H   0  0  0  0  0  0
  -26.6220  -19.9975  -22.5117 H   0  0  0  0  0  0
  -28.4215  -18.9532  -24.7011 H   0  0  0  0  0  0
  -26.1884  -18.5266  -25.3251 H   0  0  0  0  0  0
  -24.3353  -18.7912  -26.4131 H   0  0  0  0  0  0
  -24.0409  -20.4162  -26.9668 H   0  0  0  0  0  0
  -23.2191  -18.4121  -23.6893 H   0  0  0  0  0  0
  -20.8707  -18.9579  -22.7724 H   0  0  0  0  0  0
  -19.6363  -20.8052  -24.2306 H   0  0  0  0  0  0
  -29.1527  -20.0780  -19.6134 H   0  0  0  0  0  0
  -27.4343  -20.0601  -19.9495 H   0  0  0  0  0  0
  1  2  1  0  0  0
  1 27  1  0  0  0
  1 28  1  0  0  0
  1 29  1  0  0  0
  2  3  1  0  0  0
  2 26  2  0  0  0
  3  4  1  0  0  0
  4  5  1  0  0  0
  4 30  1  0  0  0
  4 31  1  0  0  0
  5 22  1  0  0  0
  5  6  2  0  0  0
  6  7  1  0  0  0
  6 23  1  0  0  0
  7 10  1  0  0  0
  7  8  1  0  0  0
  8  9  1  0  0  0
  8 21  1  0  0  0
  8 32  1  0  0  0
  9 10  1  0  0  0
  9 12  1  0  0  0
  9 33  1  0  0  0
 10 11  2  0  0  0
 12 13  1  0  0  0
 12 34  1  0  0  0
 13 14  1  0  0  0
 13 20  2  0  0  0
 14 15  1  0  0  0
 14 35  1  0  0  0
 14 36  1  0  0  0
 15 19  1  0  0  0
 15 16  2  0  0  0
 16 17  1  0  0  0
 16 37  1  0  0  0
 17 18  2  0  0  0
 17 38  1  0  0  0
 18 19  1  0  0  0
 18 39  1  0  0  0
 21 22  1  0  0  0
 22 40  1  0  0  0
 22 41  1  0  0  0
 23 24  1  0  0  0
 23 25  2  0  0  0
M  CHG  1  24  -1
M  END
> <s_m_entry_id>
27794

> <s_m_entry_name>
data_maestro.33

> <s_m_Source_Path>
C:\Users\olshana1\Git\GramNeg-Accumulation\Gram Negative Permeation - OmpF

> <s_m_Source_File>
data_maestro.csv

> <i_m_Source_File_Index>
33

> <s_m_job_name>
glide-dock_Nicaido_neutral

> <s_i_glide_gridfile>
3POX-grid

> <i_i_glide_lignum>
42

> <i_i_glide_rotatable_bonds>
8

> <r_i_docking_score>
-1.9025082910595

> <r_i_glide_ligand_efficiency>
-0.0731733958099809

> <r_i_glide_ligand_efficiency_sa>
-0.216775897163659

> <r_i_glide_ligand_efficiency_ln>
-0.446797829516449

> <r_i_glide_gscore>
-1.9025082910595

> <r_i_glide_lipo>
-0.0118008960807147

> <r_i_glide_hbond>
-0.871537474128961

> <r_i_glide_metal>
0

> <r_i_glide_rewards>
2.11923119524302

> <r_i_glide_evdw>
-24.2619647979736

> <r_i_glide_ecoul>
-13.4201059341431

> <r_i_glide_erotb>
0.625287901339008

> <r_i_glide_esite>
-0.537574887411717

> <r_i_glide_emodel>
-32.3620492438301

> <r_i_glide_energy>
-37.6820707321167

> <r_i_glide_einternal>
14.444748878479

> <i_i_glide_confnum>
21

> <i_i_glide_posenum>
85

> <r_i_glide_eff_state_penalty>
0

> <r_glide_res:A132_vdw>
-2.15587744201792

> <r_glide_res:A132_coul>
-46.6959069456559

> <r_glide_res:A132_hbond>
-0.154164073282015

> <r_glide_res:A132_dist>
2.21019622528581

> <r_glide_res:A132_Eint>
-49.0059484609558

> <r_glide_res:A117_vdw>
-3.01677459285613

> <r_glide_res:A117_coul>
7.41652125355364

> <r_glide_res:A117_hbond>
-0.0716845141149877

> <r_glide_res:A117_dist>
2.25416928497673

> <r_glide_res:A117_Eint>
4.32806214658252

> <r_glide_res:A113_vdw>
0.476592990611049

> <r_glide_res:A113_coul>
20.0874164424691

> <r_glide_res:A113_hbond>
0

> <r_glide_res:A113_dist>
1.99053058513642

> <r_glide_res:A113_Eint>
20.5640094330801

> <r_glide_res:A82_vdw>
4.29029090052933

> <r_glide_res:A82_coul>
-61.8942046545078

> <r_glide_res:A82_hbond>
-0.389608290270346

> <r_glide_res:A82_dist>
1.57921658054069

> <r_glide_res:A82_Eint>
-57.9935220442488

> <r_glide_res:A42_vdw>
-1.71847953546726

> <r_glide_res:A42_coul>
-43.5155994349183

> <r_glide_res:A42_hbond>
-0.256080596461612

> <r_glide_res:A42_dist>
2.15771520348601

> <r_glide_res:A42_Eint>
-45.4901595668472

> <r_glide_res:A16_vdw>
-0.508499922375071

> <r_glide_res:A16_coul>
-24.6837806191845

> <r_glide_res:A16_hbond>
0

> <r_glide_res:A16_dist>
3.32736480453265

> <r_glide_res:A16_Eint>
-25.1922805415596

> <s_m_source_file>
ligprep_Nicaido_neutral.maegz

> <i_m_source_file_index>
33

> <i_lp_mmshare_version>
58128

> <i_f3d_flags>
0

> <s_lp_Force_Field>
S-OPLS

> <r_lp_Energy>
31.39315

> <b_lp_Chiralities_Consistent>
1

> <s_lp_Variant>
Cephalothin-1

> <s_epik_input>
W0NIM11DKD1PKU9bQ0gyXUMoPUMxQyg9TylbT0hdKVtDSDJdU1tDQEBIXShOMTIpW0NASF0oQzI9TylbTkhdQyg9TylbQ0gyXWMzW2NIXVtjSF1bY0hdczM=

> <s_epik_cmdline>
J2VwaWtfcHl0aG9uJywgJy1waHQnLCAnMC4wJywgJy1waCcsICc3LjQnLCAnLW50JywgJy1tYScsICc1MDAnLCAnLWltYWUnLCAnPGluZmlsZS5tYWU+JywgJy1vbWFlJywgJzxvdXRmaWxlLm1hZT4n

> <r_lp_tautomer_probability>
1

> <r_epik_Ionization_Penalty>
  0.0000

> <r_epik_Ionization_Penalty_Charging>
  0.0000

> <r_epik_Ionization_Penalty_Neutral>
  0.0000

> <r_epik_State_Penalty>
  0.0000

> <r_epik_Charging_Adjusted_Penalty>
6.16900125885048e-06

> <i_epik_Tot_Q>
-1

> <i_epik_Tot_abs_Q>
1

> <s_epik_Chemistry_Notes>
This compound has an ester and may undergo hydrolysis at high or low pH. This compound contains an acetal/aminal-like group ( X-CH(R)-Y where X, Y are N, S, or O) that may be acid/base labile, releasing an aldehyde.

> <s_m_subgroup_title>
glide-dock_Nicaido_neutral_pv1

> <s_m_subgroupid>
glide-dock_Nicaido_neutral_pv1

> <b_m_subgroup_collapsed>
0

$$$$
Cefotaxime
                    3D
 Schrodinger Suite 2022-2.
 46 48  0  0  1  0            999 V2000
  -20.0948  -21.8381  -25.3075 C   0  0  0  0  0  0
  -20.1857  -23.3614  -25.2159 C   0  0  0  0  0  0
  -21.2899  -23.9491  -25.7393 O   0  0  0  0  0  0
  -22.3680  -23.2418  -26.3508 C   0  0  0  0  0  0
  -23.3280  -22.6129  -25.3465 C   0  0  0  0  0  0
  -23.9207  -23.3114  -24.3410 C   0  0  0  0  0  0
  -24.7934  -22.7075  -23.4230 N   0  0  0  0  0  0
  -25.5328  -21.5045  -23.7514 C   0  0  1  0  0  0
  -26.1242  -21.5656  -22.3339 C   0  0  2  0  0  0
  -25.4857  -22.9740  -22.2529 C   0  0  0  0  0  0
  -25.5668  -23.9495  -21.5377 O   0  0  0  0  0  0
  -27.5911  -21.5003  -22.3460 N   0  0  0  0  0  0
  -28.4918  -22.4123  -22.7742 C   0  0  0  0  0  0
  -29.9062  -21.9008  -22.7443 C   0  0  0  0  0  0
  -30.0396  -20.4916  -23.1947 C   0  0  0  0  0  0
  -30.4923  -19.5095  -22.3472 C   0  0  0  0  0  0
  -30.4802  -17.9496  -23.1128 S   0  0  0  0  0  0
  -29.8549  -18.6953  -24.5696 C   0  0  0  0  0  0
  -29.5701  -17.9500  -25.6997 N   0  0  0  0  0  0
  -29.6574  -20.0089  -24.4577 N   0  0  0  0  0  0
  -30.8573  -22.6565  -22.3646 N   0  0  0  0  0  0
  -32.1078  -22.0272  -22.4302 O   0  0  0  0  0  0
  -32.9129  -22.5551  -21.3911 C   0  0  0  0  0  0
  -28.2296  -23.5496  -23.1758 O   0  0  0  0  0  0
  -24.3389  -20.2350  -24.2420 S   0  0  0  0  0  0
  -23.5956  -21.1334  -25.6268 C   0  0  0  0  0  0
  -23.6675  -24.8353  -24.1272 C   0  0  0  0  0  0
  -22.7691  -25.1494  -23.3164 O   0  5  0  0  0  0
  -24.3688  -25.6148  -24.8137 O   0  0  0  0  0  0
  -19.2801  -24.0123  -24.6990 O   0  0  0  0  0  0
  -20.8529  -21.3714  -24.6799 H   0  0  0  0  0  0
  -19.1183  -21.5024  -24.9594 H   0  0  0  0  0  0
  -20.2162  -21.4969  -26.3357 H   0  0  0  0  0  0
  -22.9328  -23.9494  -26.9553 H   0  0  0  0  0  0
  -21.9922  -22.4866  -27.0419 H   0  0  0  0  0  0
  -26.2564  -21.6925  -24.5472 H   0  0  0  0  0  0
  -25.6706  -20.8301  -21.6682 H   0  0  0  0  0  0
  -27.9696  -20.6195  -22.0228 H   0  0  0  0  0  0
  -30.8207  -19.6048  -21.3190 H   0  0  0  0  0  0
  -28.7471  -18.2155  -26.2199 H   0  0  0  0  0  0
  -29.6539  -16.9431  -25.6153 H   0  0  0  0  0  0
  -33.8959  -22.0852  -21.4125 H   0  0  0  0  0  0
  -33.0507  -23.6315  -21.4949 H   0  0  0  0  0  0
  -32.4715  -22.3514  -20.4142 H   0  0  0  0  0  0
  -22.6714  -20.6214  -25.8933 H   0  0  0  0  0  0
  -24.2573  -21.0595  -26.4900 H   0  0  0  0  0  0
  1  2  1  0  0  0
  1 31  1  0  0  0
  1 32  1  0  0  0
  1 33  1  0  0  0
  2  3  1  0  0  0
  2 30  2  0  0  0
  3  4  1  0  0  0
  4  5  1  0  0  0
  4 34  1  0  0  0
  4 35  1  0  0  0
  5 26  1  0  0  0
  5  6  2  0  0  0
  6  7  1  0  0  0
  6 27  1  0  0  0
  7 10  1  0  0  0
  7  8  1  0  0  0
  8  9  1  0  0  0
  8 25  1  0  0  0
  8 36  1  0  0  0
  9 10  1  0  0  0
  9 12  1  0  0  0
  9 37  1  0  0  0
 10 11  2  0  0  0
 12 13  1  0  0  0
 12 38  1  0  0  0
 13 14  1  0  0  0
 13 24  2  0  0  0
 14 15  1  0  0  0
 14 21  2  3  0  0
 15 20  1  0  0  0
 15 16  2  0  0  0
 16 17  1  0  0  0
 16 39  1  0  0  0
 17 18  1  0  0  0
 18 19  1  0  0  0
 18 20  2  0  0  0
 19 40  1  0  0  0
 19 41  1  0  0  0
 21 22  1  0  0  0
 22 23  1  0  0  0
 23 42  1  0  0  0
 23 43  1  0  0  0
 23 44  1  0  0  0
 25 26  1  0  0  0
 26 45  1  0  0  0
 26 46  1  0  0  0
 27 28  1  0  0  0
 27 29  2  0  0  0
M  CHG  1  28  -1
M  END
> <s_m_entry_id>
27795

> <s_m_entry_name>
data_maestro.6

> <s_m_Source_Path>
C:\Users\olshana1\Git\GramNeg-Accumulation\Gram Negative Permeation - OmpF

> <s_m_Source_File>
data_maestro.csv

> <i_m_Source_File_Index>
6

> <s_m_job_name>
glide-dock_Nicaido_neutral

> <s_i_glide_gridfile>
3POX-grid

> <i_i_glide_lignum>
7

> <i_i_glide_rotatable_bonds>
9

> <r_i_docking_score>
-1.75944703935442

> <r_i_glide_ligand_efficiency>
-0.0586482346451472

> <r_i_glide_ligand_efficiency_sa>
-0.182233700899606

> <r_i_glide_ligand_efficiency_ln>
-0.399765538052271

> <r_i_glide_gscore>
-1.75944703935442

> <r_i_glide_lipo>
-0.0098142713572765

> <r_i_glide_hbond>
-0.811685398510408

> <r_i_glide_metal>
0

> <r_i_glide_rewards>
2.71571920282856

> <r_i_glide_evdw>
-29.0395164489746

> <r_i_glide_ecoul>
-15.0055732727051

> <r_i_glide_erotb>
0.680611118548691

> <r_i_glide_esite>
-0.631465877509493

> <r_i_glide_emodel>
-35.3003946722581

> <r_i_glide_energy>
-44.0450897216797

> <r_i_glide_einternal>
19.1929893493652

> <i_i_glide_confnum>
226

> <i_i_glide_posenum>
82

> <r_i_glide_eff_state_penalty>
0

> <r_glide_res:A132_vdw>
-1.08055539362611

> <r_glide_res:A132_coul>
-40.3286878317305

> <r_glide_res:A132_hbond>
-0.15357537905742

> <r_glide_res:A132_dist>
1.92044076102882

> <r_glide_res:A132_Eint>
-41.562818604414

> <r_glide_res:A117_vdw>
-4.61394645554598

> <r_glide_res:A117_coul>
13.4734768478293

> <r_glide_res:A117_hbond>
0

> <r_glide_res:A117_dist>
1.98610607950992

> <r_glide_res:A117_Eint>
8.85953039228336

> <r_glide_res:A113_vdw>
-2.61445090136232

> <r_glide_res:A113_coul>
9.85068412954869

> <r_glide_res:A113_hbond>
0

> <r_glide_res:A113_dist>
2.6010044843169

> <r_glide_res:A113_Eint>
7.23623322818636

> <r_glide_res:A82_vdw>
-1.68532206492143

> <r_glide_res:A82_coul>
-50.046032421471

> <r_glide_res:A82_hbond>
-0.320048937030515

> <r_glide_res:A82_dist>
1.91807334539989

> <r_glide_res:A82_Eint>
-52.0514034234229

> <r_glide_res:A42_vdw>
-3.14863722263518

> <r_glide_res:A42_coul>
-30.3417410347603

> <r_glide_res:A42_hbond>
0

> <r_glide_res:A42_dist>
2.157338683162

> <r_glide_res:A42_Eint>
-33.4903782573954

> <r_glide_res:A16_vdw>
-0.540373112859979

> <r_glide_res:A16_coul>
-19.0004905483775

> <r_glide_res:A16_hbond>
0

> <r_glide_res:A16_dist>
3.8304838228818

> <r_glide_res:A16_Eint>
-19.5408636612375

> <s_m_source_file>
ligprep_Nicaido_neutral.maegz

> <i_m_source_file_index>
6

> <i_lp_mmshare_version>
58128

> <i_f3d_flags>
0

> <s_lp_Force_Field>
S-OPLS

> <r_lp_Energy>
53.728996

> <b_lp_Chiralities_Consistent>
1

> <s_lp_Variant>
Cefotaxime-1

> <s_epik_input>
W0NIM11DKD1PKU9bQ0gyXUMoPUMxQyg9TylbT0hdKVtDSDJdU1tDQEBIXShOMTIpW0NASF0oQzI9TylbTkhdQyg9TykvQyg9Ti9PW0NIM10pYzNbY0hdc2MobjMpW05IMl0=

> <s_epik_cmdline>
J2VwaWtfcHl0aG9uJywgJy1waHQnLCAnMC4wJywgJy1waCcsICc3LjQnLCAnLW50JywgJy1tYScsICc1MDAnLCAnLWltYWUnLCAnPGluZmlsZS5tYWU+JywgJy1vbWFlJywgJzxvdXRmaWxlLm1hZT4n

> <r_lp_tautomer_probability>
1

> <r_epik_Ionization_Penalty>
  0.0004

> <r_epik_Ionization_Penalty_Charging>
  0.0000

> <r_epik_Ionization_Penalty_Neutral>
  0.0004

> <r_epik_State_Penalty>
  0.0000

> <r_epik_Charging_Adjusted_Penalty>
5.45682606121274e-06

> <i_epik_Tot_Q>
-1

> <i_epik_Tot_abs_Q>
1

> <s_epik_Chemistry_Notes>
This compound has an ester and may undergo hydrolysis at high or low pH. This compound has an imine and may undergo hydrolysis. This compound contains an acetal/aminal-like group ( X-CH(R)-Y where X, Y are N, S, or O) that may be acid/base labile, releasing an aldehyde.

> <s_m_subgroup_title>
glide-dock_Nicaido_neutral_pv1

> <s_m_subgroupid>
glide-dock_Nicaido_neutral_pv1

> <b_m_subgroup_collapsed>
0

$$$$
Cephalothin
                    3D
 Schrodinger Suite 2022-2.
 41 43  0  0  1  0            999 V2000
  -28.1169  -22.0892  -18.2850 C   0  0  0  0  0  0
  -28.1767  -23.4040  -19.0589 C   0  0  0  0  0  0
  -29.0386  -23.4925  -20.0954 O   0  0  0  0  0  0
  -29.7639  -22.4089  -20.6840 C   0  0  0  0  0  0
  -28.9162  -21.5072  -21.5632 C   0  0  0  0  0  0
  -28.6082  -21.7966  -22.8467 C   0  0  0  0  0  0
  -27.9968  -20.7940  -23.5979 N   0  0  0  0  0  0
  -26.7492  -20.2160  -23.1179 C   0  0  1  0  0  0
  -26.8343  -19.3065  -24.3601 C   0  0  2  0  0  0
  -27.8461  -20.3477  -24.8948 C   0  0  0  0  0  0
  -28.3335  -20.6915  -25.9508 O   0  0  0  0  0  0
  -25.5690  -19.1858  -25.0911 N   0  0  0  0  0  0
  -24.7905  -20.1546  -25.6090 C   0  0  0  0  0  0
  -23.5049  -19.7033  -26.3005 C   0  0  0  0  0  0
  -22.3122  -19.9338  -25.4304 C   0  0  0  0  0  0
  -21.9871  -19.2929  -24.2618 C   0  0  0  0  0  0
  -20.7690  -19.7582  -23.6872 C   0  0  0  0  0  0
  -20.1790  -20.7495  -24.4261 C   0  0  0  0  0  0
  -21.1112  -21.1300  -25.8485 S   0  0  0  0  0  0
  -25.0524  -21.3572  -25.5485 O   0  0  0  0  0  0
  -26.9229  -19.6038  -21.3885 S   0  0  0  0  0  0
  -28.6215  -20.1198  -21.0025 C   0  0  0  0  0  0
  -28.9519  -23.1526  -23.5436 C   0  0  0  0  0  0
  -28.8823  -24.1716  -22.8134 O   0  5  0  0  0  0
  -29.1689  -23.1496  -24.7787 O   0  0  0  0  0  0
  -27.4580  -24.3496  -18.7372 O   0  0  0  0  0  0
  -29.0896  -21.6041  -18.2311 H   0  0  0  0  0  0
  -27.7860  -22.2757  -17.2632 H   0  0  0  0  0  0
  -27.4039  -21.4081  -18.7480 H   0  0  0  0  0  0
  -30.3331  -21.7885  -20.0134 H   0  0  0  0  0  0
  -30.5288  -22.8634  -21.3131 H   0  0  0  0  0  0
  -25.9523  -20.9611  -23.1592 H   0  0  0  0  0  0
  -27.2926  -18.3496  -24.1377 H   0  0  0  0  0  0
  -25.2225  -18.2182  -25.2134 H   0  0  0  0  0  0
  -23.5689  -18.6537  -26.5873 H   0  0  0  0  0  0
  -23.3988  -20.2712  -27.2218 H   0  0  0  0  0  0
  -22.5766  -18.5098  -23.8060 H   0  0  0  0  0  0
  -20.3740  -19.3498  -22.7684 H   0  0  0  0  0  0
  -19.2538  -21.2695  -24.2278 H   0  0  0  0  0  0
  -29.3230  -19.4083  -21.4392 H   0  0  0  0  0  0
  -28.7689  -20.0688  -19.9258 H   0  0  0  0  0  0
  1  2  1  0  0  0
  1 27  1  0  0  0
  1 28  1  0  0  0
  1 29  1  0  0  0
  2  3  1  0  0  0
  2 26  2  0  0  0
  3  4  1  0  0  0
  4  5  1  0  0  0
  4 30  1  0  0  0
  4 31  1  0  0  0
  5 22  1  0  0  0
  5  6  2  0  0  0
  6  7  1  0  0  0
  6 23  1  0  0  0
  7 10  1  0  0  0
  7  8  1  0  0  0
  8  9  1  0  0  0
  8 21  1  0  0  0
  8 32  1  0  0  0
  9 10  1  0  0  0
  9 12  1  0  0  0
  9 33  1  0  0  0
 10 11  2  0  0  0
 12 13  1  0  0  0
 12 34  1  0  0  0
 13 14  1  0  0  0
 13 20  2  0  0  0
 14 15  1  0  0  0
 14 35  1  0  0  0
 14 36  1  0  0  0
 15 19  1  0  0  0
 15 16  2  0  0  0
 16 17  1  0  0  0
 16 37  1  0  0  0
 17 18  2  0  0  0
 17 38  1  0  0  0
 18 19  1  0  0  0
 18 39  1  0  0  0
 21 22  1  0  0  0
 22 40  1  0  0  0
 22 41  1  0  0  0
 23 24  1  0  0  0
 23 25  2  0  0  0
M  CHG  1  24  -1
M  END
> <s_m_entry_id>
27796

> <s_m_entry_name>
data_maestro.33

> <s_m_Source_Path>
C:\Users\olshana1\Git\GramNeg-Accumulation\Gram Negative Permeation - OmpF

> <s_m_Source_File>
data_maestro.csv

> <i_m_Source_File_Index>
33

> <s_m_job_name>
glide-dock_Nicaido_neutral

> <s_i_glide_gridfile>
3POX-grid

> <i_i_glide_lignum>
42

> <i_i_glide_rotatable_bonds>
8

> <r_i_docking_score>
-1.68538142114608

> <r_i_glide_ligand_efficiency>
-0.0648223623517723

> <r_i_glide_ligand_efficiency_sa>
-0.192035993403446

> <r_i_glide_ligand_efficiency_ln>
-0.395806296568652

> <r_i_glide_gscore>
-1.68538142114608

> <r_i_glide_lipo>
-0.0565812370024385

> <r_i_glide_hbond>
-0.726541339673345

> <r_i_glide_metal>
0

> <r_i_glide_rewards>
2.2222264481865

> <r_i_glide_evdw>
-20.7369594573975

> <r_i_glide_ecoul>
-14.4667901992798

> <r_i_glide_erotb>
0.625287901339008

> <r_i_glide_esite>
-0.542906691233963

> <r_i_glide_emodel>
-29.4002053358999

> <r_i_glide_energy>
-35.2037496566772

> <r_i_glide_einternal>
12.542010307312

> <i_i_glide_confnum>
90

> <i_i_glide_posenum>
265

> <r_i_glide_eff_state_penalty>
0

> <r_glide_res:A132_vdw>
-2.08174417786348

> <r_glide_res:A132_coul>
-39.4641736215049

> <r_glide_res:A132_hbond>
-0.0922256412010286

> <r_glide_res:A132_dist>
2.34872858435633

> <r_glide_res:A132_Eint>
-41.6381434405694

> <r_glide_res:A117_vdw>
1.72212228228206

> <r_glide_res:A117_coul>
5.47658411875801

> <r_glide_res:A117_hbond>
-0.129207353249297

> <r_glide_res:A117_dist>
1.52301838312324

> <r_glide_res:A117_Eint>
7.06949904779077

> <r_glide_res:A113_vdw>
-1.08001081257637

> <r_glide_res:A113_coul>
16.3279910540611

> <r_glide_res:A113_hbond>
0

> <r_glide_res:A113_dist>
2.08884305398502

> <r_glide_res:A113_Eint>
15.2479802414847

> <r_glide_res:A82_vdw>
1.23899929100078

> <r_glide_res:A82_coul>
-52.7512160249559

> <r_glide_res:A82_hbond>
-0.305108345223019

> <r_glide_res:A82_dist>
1.77081218434065

> <r_glide_res:A82_Eint>
-51.8173250791781

> <r_glide_res:A42_vdw>
-1.28812677582526

> <r_glide_res:A42_coul>
-52.4089501522639

> <r_glide_res:A42_hbond>
-0.2

> <r_glide_res:A42_dist>
1.86975905247446

> <r_glide_res:A42_Eint>
-53.8970769280892

> <r_glide_res:A16_vdw>
-0.665756925539045

> <r_glide_res:A16_coul>
-32.887878157241

> <r_glide_res:A16_hbond>
0

> <r_glide_res:A16_dist>
2.96009254709651

> <r_glide_res:A16_Eint>
-33.55363508278

> <s_m_source_file>
ligprep_Nicaido_neutral.maegz

> <i_m_source_file_index>
33

> <i_lp_mmshare_version>
58128

> <i_f3d_flags>
0

> <s_lp_Force_Field>
S-OPLS

> <r_lp_Energy>
31.39315

> <b_lp_Chiralities_Consistent>
1

> <s_lp_Variant>
Cephalothin-1

> <s_epik_input>
W0NIM11DKD1PKU9bQ0gyXUMoPUMxQyg9TylbT0hdKVtDSDJdU1tDQEBIXShOMTIpW0NASF0oQzI9TylbTkhdQyg9TylbQ0gyXWMzW2NIXVtjSF1bY0hdczM=

> <s_epik_cmdline>
J2VwaWtfcHl0aG9uJywgJy1waHQnLCAnMC4wJywgJy1waCcsICc3LjQnLCAnLW50JywgJy1tYScsICc1MDAnLCAnLWltYWUnLCAnPGluZmlsZS5tYWU+JywgJy1vbWFlJywgJzxvdXRmaWxlLm1hZT4n

> <r_lp_tautomer_probability>
1

> <r_epik_Ionization_Penalty>
  0.0000

> <r_epik_Ionization_Penalty_Charging>
  0.0000

> <r_epik_Ionization_Penalty_Neutral>
  0.0000

> <r_epik_State_Penalty>
  0.0000

> <r_epik_Charging_Adjusted_Penalty>
6.16900125885048e-06

> <i_epik_Tot_Q>
-1

> <i_epik_Tot_abs_Q>
1

> <s_epik_Chemistry_Notes>
This compound has an ester and may undergo hydrolysis at high or low pH. This compound contains an acetal/aminal-like group ( X-CH(R)-Y where X, Y are N, S, or O) that may be acid/base labile, releasing an aldehyde.

> <s_m_subgroup_title>
glide-dock_Nicaido_neutral_pv1

> <s_m_subgroupid>
glide-dock_Nicaido_neutral_pv1

> <b_m_subgroup_collapsed>
0

$$$$
Cephalothin
                    3D
 Schrodinger Suite 2022-2.
 41 43  0  0  1  0            999 V2000
  -26.8826  -22.4410  -17.9331 C   0  0  0  0  0  0
  -27.0910  -23.6721  -18.8147 C   0  0  0  0  0  0
  -28.1292  -23.6460  -19.6810 O   0  0  0  0  0  0
  -28.8716  -22.4739  -20.0196 C   0  0  0  0  0  0
  -28.1629  -21.6131  -21.0655 C   0  0  0  0  0  0
  -28.0231  -21.9515  -22.3728 C   0  0  0  0  0  0
  -27.4463  -21.0173  -23.2480 N   0  0  0  0  0  0
  -26.1460  -20.4483  -22.9039 C   0  0  1  0  0  0
  -26.2957  -19.6368  -24.2072 C   0  0  2  0  0  0
  -27.2946  -20.7498  -24.6007 C   0  0  0  0  0  0
  -27.7118  -21.2725  -25.6134 O   0  0  0  0  0  0
  -25.0712  -19.5496  -25.0168 N   0  0  0  0  0  0
  -24.3007  -20.5191  -25.5380 C   0  0  0  0  0  0
  -23.0807  -20.0525  -26.3323 C   0  0  0  0  0  0
  -21.8178  -20.3789  -25.6028 C   0  0  0  0  0  0
  -20.8720  -21.3122  -25.9428 C   0  0  0  0  0  0
  -19.7887  -21.3751  -25.0185 C   0  0  0  0  0  0
  -19.9243  -20.4894  -23.9825 C   0  0  0  0  0  0
  -21.3830  -19.5495  -24.1285 S   0  0  0  0  0  0
  -24.5170  -21.7245  -25.4014 O   0  0  0  0  0  0
  -26.1651  -19.6789  -21.2334 S   0  0  0  0  0  0
  -27.7821  -20.2132  -20.5953 C   0  0  0  0  0  0
  -28.5378  -23.2980  -22.9895 C   0  0  0  0  0  0
  -29.1692  -23.2484  -24.0690 O   0  5  0  0  0  0
  -28.1743  -24.3496  -22.4133 O   0  0  0  0  0  0
  -26.3410  -24.6441  -18.7234 O   0  0  0  0  0  0
  -27.8218  -22.0934  -17.5030 H   0  0  0  0  0  0
  -26.2161  -22.6852  -17.1057 H   0  0  0  0  0  0
  -26.4272  -21.6329  -18.5035 H   0  0  0  0  0  0
  -29.1288  -21.8845  -19.1406 H   0  0  0  0  0  0
  -29.8254  -22.7960  -20.4380 H   0  0  0  0  0  0
  -25.3699  -21.2168  -22.9438 H   0  0  0  0  0  0
  -26.7541  -18.6629  -24.0294 H   0  0  0  0  0  0
  -24.7815  -18.5863  -25.2134 H   0  0  0  0  0  0
  -23.1360  -18.9792  -26.5238 H   0  0  0  0  0  0
  -23.0903  -20.5442  -27.3048 H   0  0  0  0  0  0
  -20.9219  -21.9491  -26.8135 H   0  0  0  0  0  0
  -18.9603  -22.0561  -25.1455 H   0  0  0  0  0  0
  -19.2570  -20.3207  -23.1500 H   0  0  0  0  0  0
  -28.5483  -19.5151  -20.9351 H   0  0  0  0  0  0
  -27.7667  -20.1433  -19.5079 H   0  0  0  0  0  0
  1  2  1  0  0  0
  1 27  1  0  0  0
  1 28  1  0  0  0
  1 29  1  0  0  0
  2  3  1  0  0  0
  2 26  2  0  0  0
  3  4  1  0  0  0
  4  5  1  0  0  0
  4 30  1  0  0  0
  4 31  1  0  0  0
  5 22  1  0  0  0
  5  6  2  0  0  0
  6  7  1  0  0  0
  6 23  1  0  0  0
  7 10  1  0  0  0
  7  8  1  0  0  0
  8  9  1  0  0  0
  8 21  1  0  0  0
  8 32  1  0  0  0
  9 10  1  0  0  0
  9 12  1  0  0  0
  9 33  1  0  0  0
 10 11  2  0  0  0
 12 13  1  0  0  0
 12 34  1  0  0  0
 13 14  1  0  0  0
 13 20  2  0  0  0
 14 15  1  0  0  0
 14 35  1  0  0  0
 14 36  1  0  0  0
 15 19  1  0  0  0
 15 16  2  0  0  0
 16 17  1  0  0  0
 16 37  1  0  0  0
 17 18  2  0  0  0
 17 38  1  0  0  0
 18 19  1  0  0  0
 18 39  1  0  0  0
 21 22  1  0  0  0
 22 40  1  0  0  0
 22 41  1  0  0  0
 23 24  1  0  0  0
 23 25  2  0  0  0
M  CHG  1  24  -1
M  END
> <s_m_entry_id>
27797

> <s_m_entry_name>
data_maestro.33

> <s_m_Source_Path>
C:\Users\olshana1\Git\GramNeg-Accumulation\Gram Negative Permeation - OmpF

> <s_m_Source_File>
data_maestro.csv

> <i_m_Source_File_Index>
33

> <s_m_job_name>
glide-dock_Nicaido_neutral

> <s_i_glide_gridfile>
3POX-grid

> <i_i_glide_lignum>
42

> <i_i_glide_rotatable_bonds>
8

> <r_i_docking_score>
-1.67038535035251

> <r_i_glide_ligand_efficiency>
-0.0642455903981735

> <r_i_glide_ligand_efficiency_sa>
-0.190327308760398

> <r_i_glide_ligand_efficiency_ln>
-0.392284518548904

> <r_i_glide_gscore>
-1.67038535035251

> <r_i_glide_lipo>
-0.10581319777316

> <r_i_glide_hbond>
-0.780243595657735

> <r_i_glide_metal>
0

> <r_i_glide_rewards>
2.28944895063654

> <r_i_glide_evdw>
-27.4227027893066

> <r_i_glide_ecoul>
-12.0833225250244

> <r_i_glide_erotb>
0.625287901339008

> <r_i_glide_esite>
-0.515431890678172

> <r_i_glide_emodel>
-33.4376254041975

> <r_i_glide_energy>
-39.5060253143311

> <r_i_glide_einternal>
12.5300369262695

> <i_i_glide_confnum>
90

> <i_i_glide_posenum>
97

> <r_i_glide_eff_state_penalty>
0

> <r_glide_res:A132_vdw>
-1.8299388689985

> <r_glide_res:A132_coul>
-43.8211637582436

> <r_glide_res:A132_hbond>
-0.141563310759733

> <r_glide_res:A132_dist>
2.21114646641231

> <r_glide_res:A132_Eint>
-45.7926659380018

> <r_glide_res:A117_vdw>
-3.32936888988296

> <r_glide_res:A117_coul>
8.8162350632153

> <r_glide_res:A117_hbond>
-0.16

> <r_glide_res:A117_dist>
1.77889366119964

> <r_glide_res:A117_Eint>
5.32686617333234

> <r_glide_res:A113_vdw>
-2.07329405882604

> <r_glide_res:A113_coul>
18.0223911703832

> <r_glide_res:A113_hbond>
0

> <r_glide_res:A113_dist>
2.34229000881861

> <r_glide_res:A113_Eint>
15.9490971115571

> <r_glide_res:A82_vdw>
0.504207258541176

> <r_glide_res:A82_coul>
-53.8259426455377

> <r_glide_res:A82_hbond>
-0.318680284898002

> <r_glide_res:A82_dist>
1.82163598046612

> <r_glide_res:A82_Eint>
-53.6404156718945

> <r_glide_res:A42_vdw>
-1.97789233599972

> <r_glide_res:A42_coul>
-47.7375611902764

> <r_glide_res:A42_hbond>
-0.16

> <r_glide_res:A42_dist>
2.01283357853987

> <r_glide_res:A42_Eint>
-49.8754535262761

> <r_glide_res:A16_vdw>
-0.405572883131903

> <r_glide_res:A16_coul>
-28.3804217283603

> <r_glide_res:A16_hbond>
0

> <r_glide_res:A16_dist>
3.59919059025757

> <r_glide_res:A16_Eint>
-28.7859946114922

> <s_m_source_file>
ligprep_Nicaido_neutral.maegz

> <i_m_source_file_index>
33

> <i_lp_mmshare_version>
58128

> <i_f3d_flags>
0

> <s_lp_Force_Field>
S-OPLS

> <r_lp_Energy>
31.39315

> <b_lp_Chiralities_Consistent>
1

> <s_lp_Variant>
Cephalothin-1

> <s_epik_input>
W0NIM11DKD1PKU9bQ0gyXUMoPUMxQyg9TylbT0hdKVtDSDJdU1tDQEBIXShOMTIpW0NASF0oQzI9TylbTkhdQyg9TylbQ0gyXWMzW2NIXVtjSF1bY0hdczM=

> <s_epik_cmdline>
J2VwaWtfcHl0aG9uJywgJy1waHQnLCAnMC4wJywgJy1waCcsICc3LjQnLCAnLW50JywgJy1tYScsICc1MDAnLCAnLWltYWUnLCAnPGluZmlsZS5tYWU+JywgJy1vbWFlJywgJzxvdXRmaWxlLm1hZT4n

> <r_lp_tautomer_probability>
1

> <r_epik_Ionization_Penalty>
  0.0000

> <r_epik_Ionization_Penalty_Charging>
  0.0000

> <r_epik_Ionization_Penalty_Neutral>
  0.0000

> <r_epik_State_Penalty>
  0.0000

> <r_epik_Charging_Adjusted_Penalty>
6.16900125885048e-06

> <i_epik_Tot_Q>
-1

> <i_epik_Tot_abs_Q>
1

> <s_epik_Chemistry_Notes>
This compound has an ester and may undergo hydrolysis at high or low pH. This compound contains an acetal/aminal-like group ( X-CH(R)-Y where X, Y are N, S, or O) that may be acid/base labile, releasing an aldehyde.

> <s_m_subgroup_title>
glide-dock_Nicaido_neutral_pv1

> <s_m_subgroupid>
glide-dock_Nicaido_neutral_pv1

> <b_m_subgroup_collapsed>
0

$$$$
